56
Energy = -1381.280948493
C     0.9964367    1.1455752    0.0953502 
C    -0.4077335    1.1740728    0.1472813 
C    -1.0215111    1.2300041    1.4017477 
C    -0.2667957    1.2683310    2.5733135 
C     1.1241166    1.2499989    2.4935576 
C     1.7831202    1.1844444    1.2606627 
C    -1.2420722    1.1982065   -1.1205401 
C    -1.4828388    2.6021132   -1.6491469 
C    -2.6069812    3.3240215   -1.2324711 
C    -2.8472521    4.6192675   -1.6862077 
C    -1.9457567    5.2158707   -2.5665050 
C    -0.8040220    4.5377680   -3.0025191 
C    -0.5915956    3.2280780   -2.5391062 
C     0.2010981    5.2248875   -3.9088529 
C     1.3038590    5.9377370   -3.1442998 
C     1.1442605    7.2772018   -2.7715677 
C     2.1300399    7.9543667   -2.0567517 
C     3.2977783    7.2840787   -1.6952659 
C     3.4976159    5.9435101   -2.0366252 
C     2.4923626    5.2869988   -2.7671293 
C     4.7452877    5.2097395   -1.5794680 
C     4.5715150    4.5171246   -0.2383646 
C     4.8792126    5.1965952    0.9457823 
C     4.7150610    4.5950520    2.1917947 
C     4.2251314    3.2918965    2.2650334 
C     3.8950897    2.5771677    1.1100833 
C     4.0809949    3.2030261   -0.1344785 
C     3.3016962    1.1835993    1.2096187 
O     3.7894575    2.4640126   -1.2654456 
O     2.7274140    3.9743581   -3.1306609 
O     0.5199254    2.5593879   -3.0160828 
O     1.5828892    1.0477792   -1.1524762 
H     3.6589857    0.5551101    0.3800224 
H     3.6714196    0.7188914    2.1345287 
H     4.0892152    2.8128593    3.2371728 
H     5.2640902    6.2166614    0.8795486 
H     5.5572379    5.9437059   -1.4790968 
H     5.0684138    4.4895395   -2.3461031 
H     4.0749386    7.8051058   -1.1317650 
H     0.2273160    7.7956430   -3.0605378 
H     0.6300614    4.5040404   -4.6211172 
H    -0.3344243    5.9745143   -4.5083997 
H    -2.1233603    6.2321251   -2.9252342 
H    -3.3090461    2.8487420   -0.5438078 
H    -0.7791797    0.5688022   -1.8954554 
H    -2.2194946    0.7483446   -0.8962158 
H    -2.1124025    1.2474679    1.4535704 
H     1.7227977    1.2778511    3.4067321 
H     1.8511914    3.4866153   -3.2323930 
H     3.5303054    3.0807925   -2.0193932 
H     2.5002867    1.4648653   -1.1316609 
H     0.8203262    1.8719313   -2.3428831 
H    -0.7607944    1.3081429    3.5446895 
H    -3.7354384    5.1603523   -1.3582039 
H     1.9906667    9.0014617   -1.7858817 
H     4.9716755    5.1380378    3.1020293 
