112
Energy = -2762.477090721
O     0.0364754    0.9391498    0.2195382 
C    -0.3191966    1.2341635    1.5272666 
C    -1.5772766    1.8251298    1.7397127 
C    -2.5146591    2.1310664    0.5837923 
H    -2.3334691    1.4315449   -0.2461184 
H    -0.4114500    2.2461718   -0.7136095 
H    -3.5465146    1.9576779    0.9196321 
O    -0.4360559    3.1053185   -1.2334953 
H     1.0298098    1.0444926    0.1533288 
H     1.8810656   -0.3375463    1.4588594 
C     3.2873581    2.0441473    1.2093701 
O     2.5702649    1.7428044    0.0720743 
C     4.2396539    3.0782562    1.2233721 
H     2.5711365    2.4996618   -0.5842418 
H     4.4493440    3.4345922   -0.9077928 
C     1.8968521    0.2692748    2.3763797 
C     4.4239998    4.0004793    0.0350644 
H     5.4009457    4.4949091    0.1302906 
O     2.1184562    3.7801665   -1.6119595 
H     1.1426759    3.5660797   -1.6793715 
C    -2.4110269    3.5671037    0.1069952 
C    -1.3610885    3.9908775   -0.7282932 
C    -3.3442677    4.5191555    0.5278770 
C    -3.2572124    5.8586633    0.1406204 
C    -2.1830187    6.2490100   -0.6610961 
C    -1.2167281    5.3387447   -1.0924418 
H    -2.0827607    7.2989991   -0.9524863 
H    -5.2665633    6.6231071    0.0399206 
H    -4.1645014    4.2042872    1.1775590 
C    -4.3151660    6.8577576    0.5414039 
H    -0.1851351    6.8072348   -2.2474233 
C     0.0178171    5.8109631   -1.8290667 
H     0.2459334    5.1551981   -2.6821042 
H     0.5170955    7.7426599   -0.0047600 
C     1.3154610    6.9956695   -0.0161816 
C     3.3437632    5.0672779   -0.0180321 
C     2.2183744    4.9320457   -0.8482814 
C     1.2171544    5.9177335   -0.9002564 
C     3.4037649    6.1692509    0.8355198 
C     2.3835088    7.1227726    0.8730268 
H     4.2460843    6.2583562    1.5262560 
H     1.7716691    9.0524520    1.6282373 
C     0.1655842    1.3380889    3.8774140 
C    -1.9301940    2.1708978    3.0434846 
C    -1.0628585    1.9530955    4.1187956 
H    -2.8935998    2.6548353    3.2219136 
C    -1.4430290    2.3964593    5.5007586 
H    -2.4157253    1.9667464    5.8044412 
H    -0.6772270    2.0837237    6.2301620 
C     0.5516377    0.9462833    2.5906131 
O    -1.5465696    3.8305366    5.4883771 
C    -2.0952605    3.7927376    7.8769614 
H    -2.5516331    4.0198588    9.9676822 
C     3.0365756    1.2652659    2.3502067 
H     0.8521706    1.1701017    4.7116984 
C     4.9582266    3.2925801    2.4017434 
H     2.0661718   -0.4287823    3.2085179 
C     3.7960693    1.5024103    3.4971429 
H     3.6062333    0.8926866    4.3822268 
C     4.7611401    2.5133918    3.5453484 
C     5.5045879    2.8356255    4.8115016 
H     5.6667819    1.9394530    5.4296970 
H     6.4874897    3.2698023    4.5849075 
O     4.8364907    3.8714696    5.5677754 
H     5.6955536    4.0994914    2.4270136 
C     3.4640437    2.2723234    6.8319369 
H     2.1463146    1.0798950    8.0444378 
C     2.3312187    2.0715239    7.6261080 
H    -4.0120696    7.8737336    0.2349865 
C    -2.3715785    4.5417530    9.0259417 
C    -1.8561725    4.4533686    6.6631877 
C    -2.4180933    5.9340235    8.9795616 
H    -2.6309301    6.5095323    9.8810170 
H    -5.3857984    7.4250247    4.2926435 
C    -1.9197461    5.8543915    6.6065663 
O    -4.6549037    6.8502531    1.9353858 
C    -4.3855831    7.7971657    4.0676282 
H    -4.0904221    8.7116814    5.9871202 
C    -2.1960569    6.5823018    7.7584824 
H    -2.2389445    7.6711626    7.6977536 
H    -1.7550529    6.3532884    5.6511886 
C    -2.5589885    8.0074095    2.4857126 
H    -0.8297976    9.0722989    3.1995394 
C    -1.8365539    8.7290905    3.4403906 
C    -3.8450474    7.5461573    2.7980017 
C    -2.3754560    8.9971238    4.6978636 
H    -1.7939562    9.5537759    5.4334584 
C    -3.6550075    8.5218677    5.0045895 
H     0.8185522    6.6236791    5.2294463 
H     0.5124570    7.8176274    7.3948134 
H     0.5686992    2.9625290    8.5148565 
C     0.9555746    8.3419521    6.5463537 
C     3.7240127    3.5438403    6.3015319 
C     2.3764794    8.1807394    1.9352721 
C     1.1245793    7.6640334    5.3450417 
C     1.4504365    3.1190754    7.8936529 
C     1.3332794    9.6853423    6.6655852 
H     1.1981905   10.2147390    7.6093168 
O     1.7969078    7.5727585    3.1049635 
C     1.6835443    8.3253673    4.2397020 
H     3.3985310    8.5281890    2.1679137 
C     2.0640178    9.6697651    4.3473618 
H     2.1791259   11.3860364    5.6411300 
C     1.8820835   10.3385680    5.5636525 
H     1.0183076    5.2054524    7.5431527 
C     2.8354866    4.5973109    6.5634665 
C     1.7098954    4.3829276    7.3534354 
H     3.0458459    5.5777335    6.1343855 
H    -2.0619423    2.7060944    7.9388133 
H     4.1425449    1.4393326    6.6531876 
H     2.4951579   10.2007797    3.4996809 
H    -2.1049191    7.7821871    1.5229368 
