56
Energy = -1777.585032061
C     0.8601381    0.9715368    0.1020560 
C    -0.5328410    0.7052698    0.0275265 
C    -1.1479940    0.1394591    1.1432189 
C    -0.4008365   -0.1549307    2.2896747 
C     0.9654858    0.1402494    2.3619124 
C     1.6226628    0.7058177    1.2702926 
C    -1.2908867    1.1203379   -1.2092541 
C    -1.2930230    2.6294767   -1.3336778 
C    -1.7654854    3.4368459   -0.3021280 
C    -1.6803550    4.8287361   -0.3938536 
C    -1.0767332    5.4404960   -1.4958351 
C    -0.5902949    4.6745052   -2.5522073 
C    -0.7219405    3.2574911   -2.4783438 
C     0.1503703    5.3142516   -3.7077472 
C     1.3231345    6.1107220   -3.1913445 
C     1.3781172    7.5028013   -3.2398944 
C     2.4598084    8.1881107   -2.6746422 
C     3.4901940    7.5044215   -2.0189362 
C     3.4774618    6.1123042   -1.9466779 
C     2.3903196    5.4267626   -2.5508457 
C     4.5122206    5.3176690   -1.1887938 
C     3.8830049    4.6770139    0.0304517 
C     3.2134487    5.4421658    0.9819945 
C     2.5623216    4.8292559    2.0559607 
C     2.5254794    3.4372510    2.1741043 
C     3.1811112    2.6307093    1.2472903 
C     3.8846620    3.2598572    0.1796690 
C     3.0726445    1.1215321    1.3067757 
O     4.4798387    2.5111761   -0.7361454 
O     2.3295527    4.0991535   -2.4439114 
O    -0.2295705    2.5079274   -3.4524286 
O     1.4567422    1.5641377   -0.9326654 
H     3.6169920    0.6989838    0.4516734 
H     3.5382450    0.7477768    2.2310936 
H     1.9614166    2.9759191    2.9873328 
H     3.1805380    6.5283825    0.8752209 
H     5.3333226    5.9828660   -0.8820058 
H     4.9302605    4.5243342   -1.8227382 
H     4.3104637    8.0621908   -1.5625733 
H     0.5727896    8.0594647   -3.7234690 
H     0.4911748    4.5203173   -4.3855710 
H    -0.5265636    5.9780064   -4.2663450 
H    -0.9662644    6.5265598   -1.5210600 
H    -2.1866934    2.9763072    0.5938748 
H    -0.8237645    0.6971850   -2.1085308 
H    -2.3241968    0.7469183   -1.1489190 
H    -2.2181816   -0.0760268    1.1198045 
H     1.5219774   -0.0745265    3.2764827 
H    -0.8965077   -0.6095175    3.1495022 
H    -2.0680066    5.4461770    0.4187282 
H     2.4926692    9.2776754   -2.7329549 
H     2.0536889    5.4458937    2.7995042 
F     3.0699004    3.5381056   -3.7331037 
F     5.9964909    2.3141563   -0.2002338 
F     1.9825119    0.3789375   -1.8508131 
F    -1.4574093    2.3055194   -4.4913739 
