56
Energy = -1778.046310133
C     0.9422788    1.1726241    0.0883624 
C    -0.4607550    1.1973661    0.0737679 
C    -1.1462068    1.3375637    1.2820125 
C    -0.4486017    1.4586031    2.4828250 
C     0.9442333    1.4492237    2.4813886 
C     1.6593939    1.2981575    1.2890441 
C    -1.2162513    1.1277344   -1.2409794 
C    -1.4415971    2.5030728   -1.8469279 
C    -2.5824043    3.2378665   -1.5084563 
C    -2.8038361    4.5025898   -2.0483553 
C    -1.8704705    5.0593652   -2.9213569 
C    -0.7157486    4.3558491   -3.2690635 
C    -0.5135327    3.0753470   -2.7316599 
C     0.3329212    4.9846894   -4.1684879 
C     1.3760020    5.7583066   -3.3791950 
C     1.1669229    7.1085190   -3.0805389 
C     2.1082533    7.8335521   -2.3537667 
C     3.2665534    7.2071750   -1.8962578 
C     3.4981979    5.8573356   -2.1675137 
C     2.5495559    5.1428913   -2.9150943 
C     4.7270085    5.1566486   -1.6169539 
C     4.4760739    4.5538987   -0.2446634 
C     4.6919970    5.3198196    0.9054078 
C     4.4617954    4.7877071    2.1718771 
C     3.9898809    3.4825335    2.3026387 
C     3.7529202    2.6967788    1.1731107 
C     4.0049242    3.2395489   -0.0962193 
C     3.1789772    1.2981643    1.3095805 
O     3.7935428    2.4212973   -1.1938109 
O     2.8270517    3.8152586   -3.1968517 
O     0.6237553    2.3898503   -3.1259344 
O     1.5903563    0.9958964   -1.1232417 
H     3.5736324    0.6447637    0.5147827 
H     3.8113362    3.0544036    3.2888558 
H     5.0712708    6.3355342    0.7947078 
H     5.0703678    4.3805559   -2.3200309 
H     4.0121725    7.7662723   -1.3312412 
H     0.2639892    7.5932934   -3.4513691 
H     0.8158848    4.2122468   -4.7886748 
H    -2.0360764    6.0460561   -3.3534751 
H    -3.3122665    2.7909044   -0.8336862 
H    -0.6828708    0.4774240   -1.9531204 
H    -2.2359733    1.3382246    1.2721582 
H     1.4971797    1.5322294    3.4168506 
H     1.9687681    3.3020711   -3.3151791 
H     3.5651958    2.9793299   -2.0003119 
H     2.5020393    1.4223468   -1.0912876 
H     0.9051685    1.7456720   -2.4048639 
H     4.6503840    5.3916794    3.0597318 
H    -0.9923581    1.5606986    3.4222648 
H    -3.7061800    5.0563462   -1.7880209 
H     1.9389220    8.8897319   -2.1429378 
F     3.6157202    0.7424324    2.5244229 
F     5.7767010    6.0859599   -1.5186052 
F    -0.3008419    5.8636230   -5.0635307 
F    -2.4642318    0.5211875   -1.0178358 
