56
Energy = -1778.069216304
C     0.9501729    1.1355406    0.0209007 
C    -0.4544279    1.1338329   -0.0277502 
C    -1.1679214    1.2193071    1.1713683 
C    -0.4791117    1.3147209    2.3726154 
C     0.9071157    1.3272909    2.4232589 
C     1.6468188    1.2325037    1.2388259 
C    -1.1952380    1.0944043   -1.3518366 
C    -1.4198085    2.4754669   -1.9433213 
C    -2.5809697    3.1859608   -1.6180105 
C    -2.7822049    4.4542366   -2.1426221 
C    -1.8559185    5.0552103   -2.9836632 
C    -0.6822414    4.3727199   -3.3165888 
C    -0.4796856    3.0838115   -2.7942561 
C     0.3677119    5.0440447   -4.1830956 
C     1.3994185    5.8097394   -3.3726713 
C     1.1790928    7.1587359   -3.0715586 
C     2.1098607    7.8569927   -2.3163606 
C     3.2634800    7.2542033   -1.8343341 
C     3.5036215    5.9050908   -2.1107474 
C     2.5678490    5.1976357   -2.8847157 
C     4.7275439    5.2171429   -1.5343183 
C     4.4607062    4.5745521   -0.1838850 
C     4.6534680    5.3188033    0.9856766 
C     4.3939478    4.7416733    2.2201478 
C     3.9366582    3.4364566    2.3376680 
C     3.7253145    2.6735642    1.1854468 
C     3.9951015    3.2526476   -0.0663707 
C     3.1643134    1.2675842    1.2972484 
O     3.8147501    2.4606587   -1.1861931 
O     2.8541313    3.8766176   -3.1783881 
O     0.6711658    2.4166875   -3.1740685 
O     1.6284815    1.0055010   -1.1776159 
H     3.5928938    0.6237147    0.5152222 
H     3.4804034    0.8436161    2.2603192 
H     3.7428644    3.0199627    3.3268329 
H     5.0156187    6.3464745    0.9381749 
H     5.5195072    5.9678991   -1.4065940 
H     5.1143099    4.4708237   -2.2438000 
H     3.9695307    7.8373635   -1.2419615 
H     0.2870523    7.6713261   -3.4335595 
H     0.8608590    4.3011568   -4.8272414 
H    -0.1373617    5.7534504   -4.8530804 
H    -2.0506407    6.0549631   -3.3735990 
H    -3.3360676    2.7488787   -0.9635532 
H    -0.6604665    0.4534352   -2.0681575 
H    -2.1764455    0.6285419   -1.1864157 
H    -2.2585193    1.2151804    1.1739874 
H     1.4092482    1.4005017    3.3886265 
H     1.9975212    3.3644475   -3.3198769 
H     3.5908514    3.0404703   -1.9797042 
H     2.5321869    1.4468234   -1.1089769 
H     0.9414017    1.7672213   -2.4521169 
F     4.5996005    5.4726474    3.3464248 
F    -1.1824731    1.3911947    3.5321640 
F    -3.9216494    5.1242569   -1.8299264 
F     1.8892320    9.1698162   -2.0464880 
