56
Energy = -3218.985662708
C     1.0233318    1.0756823    0.0368301 
C    -0.3852609    1.0731060    0.1194516 
C    -0.9832205    1.0214335    1.3835357 
C    -0.2214248    0.9989573    2.5478180 
C     1.1653838    1.0178969    2.4466077 
C     1.8155957    1.0594733    1.2056805 
C    -1.3225681    1.1838429   -1.0686182 
C    -1.4929318    2.5734147   -1.6597620 
C    -2.6512056    3.2656328   -1.2808450 
C    -2.9162698    4.5541862   -1.7316047 
C    -2.0049600    5.1720724   -2.5825059 
C    -0.8280252    4.5301761   -2.9835706 
C    -0.5849877    3.2166672   -2.5291719 
C     0.1280512    5.3410144   -3.8383308 
C     1.3185687    5.9504073   -3.1163905 
C     1.2062618    7.3066013   -2.7808750 
C     2.2141093    7.9793513   -2.0986265 
C     3.3657531    7.2853159   -1.7402810 
C     3.5248160    5.9280504   -2.0414060 
C     2.4979213    5.2667858   -2.7478897 
C     4.7840806    5.2618594   -1.5190465 
C     4.6277753    4.4354819   -0.2532337 
C     5.0253197    5.0552310    0.9393781 
C     4.9124571    4.4180047    2.1702669 
C     4.3901572    3.1290627    2.2173027 
C     3.9686020    2.4683481    1.0580449 
C     4.1063605    3.1250173   -0.1832222 
C     3.3341342    1.1034288    1.2494212 
O     3.7571047    2.4325451   -1.3026183 
O     2.7083625    3.9657837   -3.0913294 
O     0.5303669    2.5877377   -2.9927600 
O     1.5801652    1.0529845   -1.2059018 
H     3.6055583    0.7926660    2.2641760 
H     4.2986013    2.6148846    3.1763706 
H     5.4426109    6.0631833    0.8890138 
H     5.4602492    6.0808692   -1.2507795 
H     4.1671616    7.8014074   -1.2074393 
H     0.3021387    7.8433657   -3.0759307 
H    -0.4558562    6.1915059   -4.2066440 
H    -2.2013947    6.1825688   -2.9470811 
H    -3.3637664    2.7671346   -0.6202189 
H    -2.3118245    0.9050971   -0.6896349 
H    -2.0732385    1.0034827    1.4473856 
H     1.7737804    0.9907530    3.3530912 
H     1.8345499    3.4909988   -3.2592131 
H     3.5515917    3.0588970   -2.0659868 
H     2.5248636    1.4054959   -1.1845615 
H     0.8068306    1.8394471   -2.3755034 
H     5.2401653    4.9161378    3.0825527 
H    -0.7036972    0.9541033    3.5241316 
H    -3.8303685    5.0670191   -1.4328488 
H     2.1086119    9.0374909   -1.8598534 
Cl    4.1051964   -0.2011926    0.2256895 
Cl    5.7304836    4.3875733   -2.8168463 
Cl    0.6031410    4.4967761   -5.3894899 
Cl   -1.0236809   -0.0910867   -2.3453947 
