56
Energy = -3218.722742201
C     0.8842840    0.9353821    0.1843259 
C    -0.5102633    0.7552847    0.1061294 
C    -1.1775170    0.3311744    1.2589368 
C    -0.4750786    0.0984696    2.4438033 
C     0.9028620    0.3194134    2.5062375 
C     1.6087721    0.7433493    1.3766193 
C    -1.2412490    1.1073338   -1.1691406 
C    -1.2487306    2.6113887   -1.3704454 
C    -1.8236610    3.4500831   -0.4130860 
C    -1.7626078    4.8370841   -0.5485012 
C    -1.0856131    5.4089967   -1.6257648 
C    -0.4960293    4.6088712   -2.6069059 
C    -0.6040216    3.2078051   -2.4752649 
C     0.3148732    5.2367791   -3.7253315 
C     1.4740558    6.0202895   -3.1534856 
C     1.4944503    7.4178119   -3.1303151 
C     2.5440266    8.1049111   -2.5157206 
C     3.5747687    7.4059773   -1.8828766 
C     3.5930740    6.0082271   -1.8829147 
C     2.5432600    5.3386803   -2.5407664 
C     4.6372090    5.2120975   -1.1341244 
C     4.0277916    4.5830079    0.1050357 
C     3.4481412    5.3831725    1.0920527 
C     2.8125750    4.8111227    2.1941778 
C     2.7096321    3.4243839    2.3046420 
C     3.2749439    2.5856350    1.3415956 
C     3.9499525    3.1817556    0.2548333 
C     3.0809303    1.0827734    1.4223482 
O     4.4438598    2.3802220   -0.7391218 
O     2.5060757    3.9673608   -2.4917460 
O     0.0319597    2.4054295   -3.3841944 
O     1.5469696    1.4182200   -0.9166460 
H     3.6105603    0.6034318    0.5890590 
H     3.5094083    0.7017530    2.3613905 
H     2.1610313    2.9828869    3.1392788 
H     3.4757081    6.4691810    0.9811164 
H     5.4617021    5.8810544   -0.8454468 
H     5.0500445    4.4230142   -1.7757198 
H     4.3783537    7.9504251   -1.3822747 
H     0.6788956    7.9715426   -3.6005310 
H     0.6794914    4.4480117   -4.3957927 
H    -0.3227731    5.9140656   -4.3129335 
H    -0.9909590    6.4946310   -1.6963235 
H    -2.3045421    3.0080638    0.4620404 
H    -0.7597188    0.6284620   -2.0313409 
H    -2.2745886    0.7345681   -1.1067018 
H    -2.2588063    0.1811775    1.2253604 
H     1.4407384    0.1601952    3.4433209 
H    -1.0090176   -0.2457477    3.3310556 
H    -2.2244337    5.4774140    0.2048181 
H     2.5519630    9.1961027   -2.5185924 
H     2.3720191    5.4514156    2.9601495 
Cl    3.3363393    3.2333306   -3.8819354 
Cl    6.1536894    1.9142548   -0.4514986 
Cl    2.1590231    0.1056489   -1.9481878 
Cl   -1.0323049    1.9575500   -4.7589138 
