56
Energy = -3218.998689187
C     1.0343682    1.0818629   -0.0101053 
C    -0.3663017    1.1689629    0.0807846 
C    -0.9483413    1.3046199    1.3417152 
C    -0.1591503    1.3547818    2.4889052 
C     1.2259522    1.2630896    2.3834630 
C     1.8450750    1.1133101    1.1393865 
C    -1.1867287    1.2012841   -1.1969931 
C    -1.4330441    2.6238315   -1.6726824 
C    -2.4902192    3.3908222   -1.1751719 
C    -2.6833175    4.7039836   -1.5951000 
C    -1.8101236    5.2737173   -2.5193723 
C    -0.7354662    4.5441349   -3.0290474 
C    -0.5515610    3.2197706   -2.5931991 
C     0.2893849    5.1590203   -3.9662578 
C     1.3935779    5.8727588   -3.2030948 
C     1.2440087    7.1897031   -2.7595170 
C     2.2503172    7.8205956   -2.0333470 
C     3.4253708    7.1346246   -1.7332561 
C     3.6063325    5.8144762   -2.1475053 
C     2.5790721    5.1890526   -2.8764023 
C     4.8334778    5.0065204   -1.7622833 
C     4.6746819    4.3570171   -0.3971341 
C     4.9682369    5.0473072    0.7821786 
C     4.7855376    4.4509866    2.0268059 
C     4.2959937    3.1490537    2.1086443 
C     3.9792326    2.4322919    0.9540833 
C     4.1661755    3.0490312   -0.2958919 
C     3.3578411    1.0472942    1.0052308 
O     3.8421188    2.3144200   -1.4242105 
O     2.7837297    3.8772761   -3.2707928 
O     0.5239158    2.5204004   -3.1145856 
O     1.5850189    0.9521062   -1.2742384 
H     3.6274112    0.4910210    0.1003864 
H     4.1699739    2.6671066    3.0783719 
H     5.3756240    6.0560237    0.7111145 
H     5.0187907    4.2375787   -2.5207794 
H     4.2271094    7.6283120   -1.1837088 
H     0.3337313    7.7300807   -3.0201788 
H     0.7210855    4.3771108   -4.6011952 
H    -1.9664408    6.2943127   -2.8693583 
H    -3.1850714    2.9313465   -0.4719423 
H    -0.6706858    0.6318299   -1.9782276 
H    -2.0348399    1.3540162    1.4172607 
H     1.8468231    1.2751002    3.2795276 
H     1.9003324    3.4042355   -3.3520700 
H     3.5790282    2.9321991   -2.1725423 
H     2.5102335    1.3452037   -1.2847475 
H     0.8294056    1.8215579   -2.4595210 
H     5.0341093    4.9989473    2.9358645 
H    -0.6260492    1.4561450    3.4687800 
H    -3.5222266    5.2826237   -1.2079706 
H     2.1227451    8.8532576   -1.7081225 
Cl    4.0873210    0.0490496    2.3325827 
Cl    6.3350812    6.0217128   -1.8323485 
Cl   -0.4992423    6.2702840   -5.1636094 
Cl   -2.7479835    0.2998613   -0.9963102 
