56
Energy = -3219.026721293
C     1.0445770    1.1904501    0.0742997 
C    -0.3563803    1.2561193    0.1596043 
C    -0.9477594    1.3478188    1.4216792 
C    -0.1552966    1.3844706    2.5666925 
C     1.2325019    1.3289782    2.4717289 
C     1.8544624    1.2265096    1.2232149 
C    -1.2208305    1.2837086   -1.0876892 
C    -1.4321578    2.6879610   -1.6275772 
C    -2.5240339    3.4402690   -1.1827865 
C    -2.7266160    4.7355067   -1.6511488 
C    -1.8424950    5.3076784   -2.5629343 
C    -0.7369498    4.5857967   -3.0185785 
C    -0.5461946    3.2757547   -2.5477278 
C     0.2587667    5.2368380   -3.9611871 
C     1.3976071    5.9282710   -3.2308921 
C     1.2706872    7.2745674   -2.8737903 
C     2.2946443    7.9228877   -2.1887525 
C     3.4582833    7.2414659   -1.8394431 
C     3.6110513    5.8936709   -2.1728474 
C     2.5765241    5.2505126   -2.8731182 
C     4.8516466    5.1384494   -1.7319724 
C     4.6835387    4.4672500   -0.3794233 
C     5.0249800    5.1651788    0.7835213 
C     4.8623161    4.5756307    2.0341543 
C     4.3498619    3.2855405    2.1501872 
C     3.9902264    2.5661938    1.0081186 
C     4.1667748    3.1659067   -0.2502400 
C     3.3711189    1.1869329    1.1433775 
O     3.8405401    2.4161282   -1.3635920 
O     2.7726856    3.9293948   -3.2255223 
O     0.5321899    2.5712391   -3.0465033 
O     1.5995648    1.0585379   -1.1837182 
H     3.6953756    0.5404833    0.3144367 
H     3.7502836    0.7262553    2.0658692 
H     4.2256360    2.8390619    3.1372552 
H     5.4306204    6.1748205    0.7112722 
H     5.6835963    5.8521870   -1.6587117 
H     5.1393403    4.3994232   -2.4943197 
H     4.2498180    7.7627307   -1.3001691 
H     0.3678022    7.8243157   -3.1415910 
H     0.6524989    4.4950540   -4.6717368 
H    -0.2721382    5.9907972   -4.5585071 
H    -2.0136035    6.3244071   -2.9180250 
H    -3.2278551    3.0071207   -0.4713644 
H    -0.7905333    0.6343472   -1.8644508 
H    -2.2037994    0.8620228   -0.8368868 
H    -2.0333697    1.3952579    1.5128492 
H     1.8372329    1.3561859    3.3787521 
H     1.8838702    3.4609231   -3.3036933 
H     3.5800862    3.0266006   -2.1218791 
H     2.5279185    1.4504674   -1.1905052 
H     0.8322736    1.8842508   -2.3730578 
Cl    5.3101997    5.4578181    3.4684288 
Cl   -0.9089028    1.4945732    4.1338443 
Cl   -4.1033673    5.6478936   -1.0960807 
Cl    2.1216856    9.6052447   -1.7695283 
