56
Energy = -11673.96417076
C     1.0517342    1.0102683    0.0431554 
C    -0.3569401    0.9994171    0.1291858 
C    -0.9485128    0.8993088    1.3946110 
C    -0.1810557    0.8418471    2.5536621 
C     1.2049234    0.8777935    2.4484339 
C     1.8513904    0.9674632    1.2067712 
C    -1.3018742    1.1430437   -1.0429412 
C    -1.4726946    2.5244030   -1.6406916 
C    -2.6462657    3.2040924   -1.2823036 
C    -2.9186560    4.4892988   -1.7375770 
C    -1.9994212    5.1204651   -2.5695943 
C    -0.8066852    4.4936075   -2.9511464 
C    -0.5614258    3.1796062   -2.4983242 
C     0.1489089    5.3199916   -3.7825395 
C     1.3521647    5.9154386   -3.0805707 
C     1.2618913    7.2792215   -2.7648457 
C     2.2824345    7.9474862   -2.0976249 
C     3.4244146    7.2427965   -1.7302251 
C     3.5640578    5.8778113   -2.0105813 
C     2.5267781    5.2241916   -2.7096300 
C     4.8126195    5.2089547   -1.4802390 
C     4.6764791    4.3587972   -0.2338083 
C     5.1157686    4.9501381    0.9599798 
C     5.0250714    4.2927640    2.1818474 
C     4.4801484    3.0132640    2.2219969 
C     4.0163968    2.3785460    1.0629912 
C     4.1405044    3.0534148   -0.1703065 
C     3.3644274    1.0272762    1.2537386 
O     3.7733795    2.3779006   -1.2928019 
O     2.7273296    3.9232681   -3.0544360 
O     0.5559658    2.5567056   -2.9615109 
O     1.6028776    1.0104819   -1.2009670 
H     3.6411905    0.7028859    2.2611213 
H     4.4024301    2.4858402    3.1749581 
H     5.5469402    5.9524613    0.9167291 
H     5.4932193    6.0215262   -1.2098750 
H     4.2334313    7.7552946   -1.2056825 
H     0.3638405    7.8243695   -3.0626721 
H    -0.4327306    6.1725842   -4.1449814 
H    -2.2006208    6.1300153   -2.9338698 
H    -3.3637695    2.6978336   -0.6331837 
H    -2.2890747    0.8611546   -0.6653650 
H    -2.0379664    0.8722483    1.4629042 
H     1.8166393    0.8276696    3.3515702 
H     1.8495510    3.4511819   -3.2193324 
H     3.5620372    3.0141457   -2.0486495 
H     2.5486604    1.3650224   -1.1798949 
H     0.8348956    1.8040449   -2.3478248 
H     5.3838562    4.7700424    3.0935820 
H    -0.6586862    0.7608349    3.5299244 
H    -3.8433700    4.9912840   -1.4534420 
H     2.1923656    9.0103210   -1.8738836 
Br    4.2262803   -0.4262567    0.1660181 
Br    5.8940117    4.3055306   -2.9132511 
Br    0.6291447    4.4524361   -5.5306941 
Br   -1.0424172   -0.2741139   -2.4441725 
