56
Energy = -11673.75555001
C     0.9302010    0.9195860    0.0486676 
C    -0.4315603    1.2631765   -0.1279933 
C    -1.0629307    2.0020310    0.8736756 
C    -0.3716731    2.3882360    2.0224378 
C     0.9806111    2.0762905    2.1662667 
C     1.6535430    1.3391958    1.1907238 
C    -1.1713168    0.9234588   -1.4087187 
C    -1.5857057    2.1904846   -2.1204548 
C    -2.9051150    2.6496582   -2.1246525 
C    -3.2330406    3.8704731   -2.7201965 
C    -2.2396146    4.6705373   -3.2908333 
C    -0.9078529    4.2488693   -3.3087955 
C    -0.6025249    2.9958698   -2.7348049 
C     0.2105797    5.1197730   -3.8324841 
C     1.0222859    5.6772472   -2.6778891 
C     0.4133187    6.4834602   -1.7151014 
C     1.1278524    6.9394263   -0.6068675 
C     2.4571475    6.5575812   -0.4229394 
C     3.1076275    5.7529824   -1.3596164 
C     2.3827203    5.3295304   -2.4992761 
C     4.5255169    5.2764184   -1.1043213 
C     4.5755746    4.4477212    0.1583652 
C     5.1071660    4.9364512    1.3542974 
C     5.0569664    4.1707893    2.5221514 
C     4.4412039    2.9164224    2.5217127 
C     3.8973334    2.3899170    1.3475368 
C     3.9907360    3.1630063    0.1701138 
C     3.1432296    1.0806528    1.3200371 
O     3.4056357    2.6980073   -0.9679154 
O     2.9700947    4.4785697   -3.3796767 
O     0.6986527    2.5987877   -2.6804391 
O     1.5853142    0.2733678   -0.9500905 
H     3.4790307    0.4635361    0.4763513 
H     3.3456254    0.5275332    2.2494082 
H     4.3838262    2.3353859    3.4447971 
H     5.5677350    5.9267164    1.3693620 
H     5.1950904    6.1426211   -0.9946973 
H     4.8702049    4.6859375   -1.9633998 
H     2.9944854    6.8703204    0.4748495 
H    -0.6428115    6.7385372   -1.8249027 
H     0.8691966    4.5403804   -4.4928097 
H    -0.2190017    5.9461378   -4.4183507 
H    -2.5009201    5.6351715   -3.7315219 
H    -3.6840602    2.0422226   -1.6585345 
H    -0.5213870    0.3174414   -2.0535384 
H    -2.0682573    0.3308470   -1.1743283 
H    -2.1056368    2.2979393    0.7401114 
H     1.5310936    2.4298509    3.0406647 
H    -0.8841031    2.9572505    2.7998872 
H    -4.2709808    4.2071812   -2.7290428 
H     0.6382027    7.5769400    0.1311035 
H     5.4912254    4.5605493    3.4442571 
Br    3.8756734    5.3608039   -4.8659012 
Br    4.6061012    1.6649127   -2.0766308 
Br    1.5623483   -1.6716275   -0.7972709 
Br    1.2381917    1.5397326   -4.2052589 
