56
Energy = -11673.99560639
C     0.9550642    1.0643133   -0.0608890 
C    -0.4491410    1.0509337   -0.1093480 
C    -1.1625744    1.1106587    1.0907490 
C    -0.4838572    1.1927399    2.3035904 
C     0.9068298    1.2144670    2.3433560 
C     1.6492374    1.1460823    1.1592167 
C    -1.1917010    1.0290815   -1.4329607 
C    -1.4294927    2.4191990   -1.9978076 
C    -2.5996643    3.1085923   -1.6612074 
C    -2.8271253    4.3899201   -2.1535147 
C    -1.8964187    5.0129670   -2.9805413 
C    -0.7135379    4.3541405   -3.3261443 
C    -0.4950106    3.0568252   -2.8328101 
C     0.3293396    5.0612914   -4.1724257 
C     1.3521734    5.8149849   -3.3393672 
C     1.1143805    7.1515830   -3.0003621 
C     2.0305538    7.8536000   -2.2233348 
C     3.1932743    7.2419060   -1.7626284 
C     3.4538626    5.9052405   -2.0759357 
C     2.5285977    5.2054290   -2.8686575 
C     4.6886143    5.2218946   -1.5170867 
C     4.4323918    4.5407715   -0.1834375 
C     4.6242645    5.2561118    1.0037347 
C     4.3771907    4.6555348    2.2342920 
C     3.9285923    3.3397218    2.3097795 
C     3.7182580    2.6025688    1.1413688 
C     3.9789862    3.2125713   -0.0972359 
C     3.1664769    1.1909522    1.2239681 
O     3.8010241    2.4468056   -1.2325186 
O     2.8322025    3.8984333   -3.1953132 
O     0.6640491    2.4154229   -3.2230409 
O     1.6332280    0.9640268   -1.2597345 
H     3.6034604    0.5636241    0.4329720 
H     3.4811520    0.7519325    2.1806438 
H     3.7359192    2.8824096    3.2806657 
H     4.9781334    6.2865805    0.9609908 
H     5.4677498    5.9821396   -1.3689937 
H     5.0887936    4.5014623   -2.2458628 
H     3.9014592    7.8030099   -1.1522639 
H     0.2097229    7.6452610   -3.3564573 
H     0.8302672    4.3437194   -4.8391318 
H    -0.1836080    5.7846910   -4.8209833 
H    -2.0859108    6.0186634   -3.3567733 
H    -3.3392406    2.6326726   -1.0166366 
H    -0.6539537    0.4048184   -2.1619069 
H    -2.1687508    0.5525836   -1.2739625 
H    -2.2527107    1.0974580    1.0738517 
H     1.4242531    1.2757104    3.3011603 
H     1.9831481    3.3804997   -3.3569792 
H     3.5813411    3.0419412   -2.0153791 
H     2.5349476    1.4067997   -1.1804146 
H     0.9363571    1.7451749   -2.5216816 
Br    4.6627614    5.6453615    3.8385637 
Br   -1.4731155    1.2701875    3.9316012 
Br   -4.4370766    5.3022102   -1.6943426 
Br    1.6925612    9.6789806   -1.7888671 
