60
Energy = -1681.991217251
C     1.0383876    0.6950907   -0.1749811 
C    -0.3570046    0.5708769   -0.0562591 
C    -0.8865493    0.1430385    1.1629224 
C    -0.0526628   -0.1261783    2.2514654 
C     1.3236690    0.0876686    2.1377610 
C     1.8844227    0.5248219    0.9361943 
C    -1.2156751    1.0354880   -1.2150933 
C    -1.0777998    2.5615469   -1.3483065 
C    -1.1855986    3.3441843   -0.1953951 
C    -0.9206504    4.7098895   -0.2248540 
C    -0.4433389    5.2870749   -1.3986301 
C    -0.3191388    4.5439641   -2.5769258 
C    -0.7466911    3.1998820   -2.5605961 
C     0.3521855    5.1797317   -3.8094582 
C     1.4917504    6.0664590   -3.3485587 
C     1.3834800    7.4554229   -3.2576555 
C     2.3773684    8.2132395   -2.6324770 
C     3.4734966    7.5708295   -2.0506082 
C     3.6178531    6.1843856   -2.1332912 
C     2.6510843    5.4503910   -2.8426467 
C     4.6894792    5.4170801   -1.3857882 
C     4.0260467    4.6387476   -0.2369394 
C     3.1133009    5.3085658    0.5825949 
C     2.3687774    4.6257487    1.5395490 
C     2.4610256    3.2384246    1.6133819 
C     3.3598337    2.5251033    0.8138096 
C     4.2171101    3.2569943   -0.0342813 
C     3.3237756    0.9848023    0.8181308 
O     5.2348277    2.5879283   -0.6763246 
O     2.8509330    4.1070755   -2.9915222 
O    -0.8151015    2.5174344   -3.7544099 
O     1.5483207    1.0283672   -1.3978456 
H     3.9088645    0.5918297    1.6699261 
H     1.7953127    2.6885542    2.2792732 
H     2.9593272    6.3791403    0.4362236 
H     5.4358027    6.1212248   -0.9861739 
H     4.2274759    8.1507073   -1.5134515 
H     0.4950551    7.9441916   -3.6644368 
H    -0.3814849    5.7836344   -4.3745215 
H    -0.1233137    6.3294049   -1.3954120 
H    -1.4444215    2.8608716    0.7483766 
H    -2.2661729    0.7639457   -1.0271915 
H    -1.9687409    0.0298046    1.2597894 
H     1.9758417   -0.0648419    3.0009464 
H     2.1807849    3.8231060   -3.6906724 
H     5.5736530    3.2251394   -1.3812023 
H     2.5394074    0.8555207   -1.3191779 
H    -0.9186630    1.5457772   -3.5037302 
H     1.6669643    5.1634541    2.1771612 
H    -0.4765496   -0.4775173    3.1923084 
H    -1.0175820    5.3087878    0.6808054 
H     2.2856713    9.2980575   -2.5771697 
O     3.8521071    0.4226151   -0.4091550 
H     4.6019241    1.0142340   -0.6767043 
O     5.4284406    4.5548244   -2.2978035 
H     4.7343078    4.1893414   -2.8947260 
O     0.9187448    4.1838398   -4.6974662 
H     0.2943776    3.4135268   -4.6731971 
O    -0.8510522    0.3282283   -2.4349024 
H     0.1329020    0.2819198   -2.3979343 
