60
Energy = -1681.985649767
C     1.0621571    1.1712271    0.0971919 
C    -0.3415280    1.2141956    0.1337717 
C    -0.9752901    1.3130450    1.3754057 
C    -0.2323160    1.3619983    2.5541124 
C     1.1588588    1.3202271    2.4990690 
C     1.8271281    1.2215550    1.2745371 
C    -1.1623291    1.1969181   -1.1550628 
C    -1.3943719    2.6091541   -1.6734256 
C    -2.5091978    3.3376982   -1.2467655 
C    -2.7269972    4.6393551   -1.6921032 
C    -1.8207073    5.2336064   -2.5691387 
C    -0.6955859    4.5358283   -3.0165560 
C    -0.4930347    3.2231506   -2.5590346 
C     0.3117371    5.2076280   -3.9487425 
C     1.3908710    5.9310045   -3.1554317 
C     1.2055793    7.2636579   -2.7740399 
C     2.1712672    7.9358613   -2.0286080 
C     3.3379906    7.2748195   -1.6471223 
C     3.5571417    5.9432041   -2.0101564 
C     2.5733594    5.2814606   -2.7636513 
C     4.8219683    5.2152457   -1.5569780 
C     4.6113667    4.5448414   -0.2066962 
C     4.8715908    5.2489312    0.9732572 
C     4.6635176    4.6607926    2.2186208 
C     4.1819315    3.3548333    2.2976471 
C     3.9108302    2.6209904    1.1395851 
C     4.1283021    3.2293165   -0.1078455 
C     3.3487317    1.2032312    1.2354871 
O     3.8703972    2.4720738   -1.2386933 
O     2.8257655    3.9687706   -3.1264935 
O     0.6190782    2.5480601   -3.0344279 
O     1.6629759    1.0527853   -1.1452613 
H     3.6758997    0.6304096    0.3490409 
H     4.0054927    2.8863312    3.2668982 
H     5.2637869    6.2624861    0.8953859 
H     5.0735348    4.4410536   -2.3041484 
H     4.0975036    7.7871488   -1.0548897 
H     0.2966884    7.7720800   -3.0943595 
H     0.7888204    4.4320927   -4.5748700 
H    -1.9745836    6.2559782   -2.9172036 
H    -3.2172728    2.8540146   -0.5745933 
H    -0.6099345    0.6225190   -1.9204929 
H    -2.0649940    1.3547970    1.4043707 
H     1.7524969    1.3402401    3.4124996 
H     1.9572756    3.4706023   -3.2354579 
H     3.6138852    3.0754739   -2.0031980 
H     2.5782279    1.4726460   -1.1244445 
H     0.9218259    1.8674305   -2.3565762 
H     4.8746011    5.2217834    3.1297153 
H    -0.7388756    1.4353377    3.5171092 
H    -3.6033158    5.1931315   -1.3533073 
H     2.0136257    8.9762275   -1.7419966 
O     3.8019226    0.5358054    2.4173036 
H     4.7666982    0.6593413    2.4558202 
O     5.9275524    6.1138306   -1.4237930 
H     5.9593855    6.6412643   -2.2413096 
O    -0.3181212    6.1720747   -4.7976412 
H    -1.0965420    5.7360637   -5.1868309 
O    -2.4450919    0.5956913   -0.9540905 
H    -2.2902276   -0.2439850   -0.4866907 
