60
Energy = -1682.024983606
C     1.0756216    1.1230790    0.0320413 
C    -0.3261639    1.1772975    0.1153239 
C    -0.9256545    1.2528283    1.3732338 
C    -0.1490483    1.2901557    2.5327844 
C     1.2420508    1.2454830    2.4317317 
C     1.8745939    1.1554793    1.1861125 
C    -1.1845233    1.2122000   -1.1358983 
C    -1.4028120    2.6210720   -1.6597207 
C    -2.4961779    3.3664686   -1.2031262 
C    -2.7162232    4.6707710   -1.6477608 
C    -1.8286876    5.2473630   -2.5581333 
C    -0.7212675    4.5364666   -3.0224853 
C    -0.5191803    3.2211098   -2.5709726 
C     0.2716664    5.2065710   -3.9545489 
C     1.4006005    5.8987394   -3.2106000 
C     1.2578292    7.2378978   -2.8285418 
C     2.2657326    7.8988573   -2.1252385 
C     3.4346224    7.2134219   -1.7892020 
C     3.6029025    5.8740524   -2.1431753 
C     2.5818097    5.2261388   -2.8590099 
C     4.8482332    5.1257105   -1.7041176 
C     4.6765825    4.4371642   -0.3611960 
C     4.9925048    5.1275296    0.8149207 
C     4.8277526    4.5331127    2.0666915 
C     4.3332977    3.2302774    2.1510897 
C     3.9958589    2.5193353    0.9986005 
C     4.1757331    3.1298565   -0.2543353 
C     3.3916102    1.1318015    1.1151118 
O     3.8712794    2.3852952   -1.3830826 
O     2.7944026    3.9088065   -3.2335198 
O     0.5655968    2.5249636   -3.0805697 
O     1.6413689    1.0043205   -1.2275739 
H     3.7249204    0.4996473    0.2789239 
H     3.7722997    0.6641833    2.0340019 
H     4.2088649    2.7752542    3.1350608 
H     5.3814313    6.1477023    0.7431627 
H     5.6736278    5.8464042   -1.6190086 
H     5.1452489    4.3962907   -2.4719409 
H     4.2162183    7.7400499   -1.2392017 
H     0.3405317    7.7710144   -3.0959954 
H     0.6771244    4.4752869   -4.6691910 
H    -0.2643097    5.9613518   -4.5470744 
H    -2.0106852    6.2677579   -2.8993345 
H    -3.1896933    2.9093429   -0.4909218 
H    -0.7431365    0.5780370   -1.9188154 
H    -2.1651856    0.7780999   -0.8954487 
H    -2.0125108    1.2884845    1.4640893 
H     1.8552456    1.2735172    3.3374648 
H     1.9097357    3.4306611   -3.3062605 
H     3.5937700    3.0030732   -2.1299780 
H     2.5603341    1.4191202   -1.2264941 
H     0.8773642    1.8447464   -2.4047850 
O     5.1385918    5.1738936    3.2421408 
H     5.4519455    6.0697910    3.0287552 
O    -0.8063027    1.3645447    3.7375745 
H    -0.1417831    1.3987087    4.4472380 
O    -3.7846603    5.4288052   -1.2322802 
H    -4.3010058    4.9063659   -0.5944751 
O     2.1673721    9.2157058   -1.7442305 
H     1.3010337    9.5532350   -2.0304068 
