60
Energy = -2973.419439374
C     1.0589856    1.1739191    0.0852952 
C    -0.3450773    1.2388345    0.1479225 
C    -0.9501274    1.3848756    1.3983503 
C    -0.1825751    1.4581169    2.5599168 
C     1.2050783    1.3835665    2.4790677 
C    -1.1541702    1.2353012   -1.1423550 
C    -1.4074742    2.6533209   -1.6418303 
C    -2.4781733    3.4179799   -1.1681120 
C    -2.6767649    4.7254602   -1.6024641 
C    -1.7969500    5.2916432   -2.5238647 
C    -0.7123892    4.5640270   -3.0191356 
C    -0.5226519    3.2472523   -2.5614758 
C     0.3071405    5.1840004   -3.9654752 
C     1.3937712    5.9293783   -3.1984025 
C     1.2242871    7.2549204   -2.7864784 
O     0.5669361    2.5517960   -3.0569185 
H     0.3093074    7.7739027   -3.0759781 
H     0.7665031    4.3818329   -4.5553638 
H    -1.9470327    6.3164724   -2.8674611 
H    -3.1727552    2.9562158   -0.4648416 
H    -0.5931989    0.6788694   -1.9026423 
H    -2.0383509    1.4433963    1.4554817 
H     0.8719724    1.8728421   -2.3810776 
H    -0.6684513    1.5709512    3.5294709 
H    -3.5197559    5.3048715   -1.2249278 
S    -0.5901956    6.2306161   -5.1915917 
H     0.5284665    6.6785185   -5.8091442 
S    -2.6942640    0.2570600   -0.8679378 
H    -3.2071877    0.4927554   -2.0986682 
H     1.8154768    1.4169251    3.3827272 
C     1.8506791    1.2329593    1.2477804 
C     2.2076645    7.9119490   -2.0523855 
C     3.3843884    7.2443788   -1.7157138 
C     3.5920446    5.9187058   -2.1036456 
C     2.5829706    5.2683844   -2.8372878 
C     4.8324577    5.1417604   -1.6823830 
C     4.6507435    4.5117292   -0.3060045 
C     4.9043566    5.2276187    0.8681761 
C     4.6974986    4.6543976    2.1197066 
C     4.2278266    3.3451549    2.2140657 
C     3.9580443    2.5963954    1.0661081 
C     4.1641929    3.1959207   -0.1898303 
C     3.3710212    1.1929810    1.1406080 
O     3.8768929    2.4378715   -1.3120352 
O     2.8074538    3.9513415   -3.1991695 
O     1.6348403    1.0413879   -1.1663811 
H     3.6553145    0.6488676    0.2320069 
H     4.0633158    2.8907005    3.1924975 
H     5.2935638    6.2431442    0.7812945 
H     5.0147884    4.3517042   -2.4205652 
H     4.1585439    7.7545576   -1.1401259 
H     1.9302572    3.4679190   -3.2868726 
H     3.6132466    3.0419720   -2.0712971 
H     2.5539835    1.4488723   -1.1633352 
H     4.9047425    5.2268319    3.0242642 
H     2.0592898    8.9470031   -1.7433509 
S     4.1914030    0.2859749    2.5220601 
H     3.4438144   -0.8352842    2.3905980 
S     6.2952005    6.2597883   -1.8021412 
H     7.1778061    5.3554068   -1.3158358 
