68
Energy = -1538.349053509
C     1.0146937    1.0681742    0.0423665 
C    -0.3939656    1.0361869    0.0595292 
C    -1.0298263    1.0173999    1.3063326 
C    -0.3066912    1.0427973    2.4956395 
C     1.0832727    1.0825030    2.4438894 
C     1.7787777    1.0915077    1.2273647 
C    -1.2755046    1.0636330   -1.1925532 
C    -1.4733096    2.4807497   -1.7461696 
C    -2.6385607    3.1622462   -1.3701597 
C    -2.9140029    4.4502563   -1.8187657 
C    -2.0046667    5.0849189   -2.6602948 
C    -0.8172173    4.4621579   -3.0618531 
C    -0.5727380    3.1547337   -2.5966042 
C     0.1478615    5.2625032   -3.9414954 
C     1.2678631    5.9315172   -3.1339770 
C     1.0858977    7.2719218   -2.7680132 
C     2.0419296    7.9706316   -2.0372962 
C     3.2108836    7.3201951   -1.6520444 
C     3.4461700    5.9790587   -1.9762616 
C     2.4616051    5.3027971   -2.7239091 
C     4.7348966    5.3335491   -1.4583471 
C     4.5200560    4.5435522   -0.1607448 
C     4.8074563    5.1957195    1.0458044 
C     4.6475803    4.5676399    2.2771362 
C     4.1834679    3.2557462    2.3148474 
C     3.8681680    2.5543291    1.1453259 
C     4.0487224    3.2166289   -0.0852941 
C     3.3110867    1.1351480    1.2911467 
O     3.7574656    2.5105922   -1.2342302 
O     2.7114571    3.9880201   -3.0587502 
O     0.5885441    2.5392425   -3.0158461 
O     1.6341067    1.0630683   -1.1903283 
H     3.5243571    0.8849359    2.3416893 
H     4.0507156    2.7537519    3.2759402 
H     5.1736534    6.2241673    1.0060829 
H     5.3365237    6.1948326   -1.1294936 
H     3.9668346    7.8576625   -1.0749814 
H     0.1664753    7.7745185   -3.0768489 
H    -0.4616047    6.1156149   -4.2769850 
H    -2.2087933    6.0974813   -3.0158745 
H    -3.3473121    2.6552122   -0.7114021 
H    -2.2735381    0.8049843   -0.8067514 
H    -2.1214988    0.9901051    1.3346727 
H     1.6594511    1.1003534    3.3717866 
H     1.8364751    3.4858775   -3.1625921 
H     3.4760843    3.1495151   -1.9698140 
H     2.5320417    1.5304678   -1.1278688 
H     0.8926958    1.8662243   -2.3208117 
H     4.8873704    5.0954619    3.2007639 
H    -0.8226269    1.0275082    3.4562319 
H    -3.8331602    4.9542655   -1.5182120 
H     1.8789793    9.0161224   -1.7735257 
C     4.0405777    0.0470435    0.4800834 
H     3.9628785    0.1593923   -0.6051651 
H     5.1094658    0.0623330    0.7358539 
H     3.6371381   -0.9397367    0.7474000 
C     5.6059576    4.6387438   -2.5224987 
H     5.1423842    3.7657881   -2.9908989 
H     5.8383767    5.3558007   -3.3224725 
H     6.5516436    4.3148511   -2.0656394 
C     0.5913316    4.5698387   -5.2444003 
H    -0.2991832    4.2844657   -5.8221241 
H     1.1825401    5.2722956   -5.8485314 
H     1.1895035    3.6657491   -5.0985312 
C    -0.9745851   -0.0233299   -2.2422049 
H    -1.0293599   -1.0115190   -1.7639809 
H    -1.7327871    0.0165211   -3.0368511 
H     0.0097929    0.0578517   -2.7121813 
