68
Energy = -1538.252180212
C     0.8545603    0.9117990    0.1491009 
C    -0.5305455    0.6902624    0.0691650 
C    -1.1986652    0.2629784    1.2227109 
C    -0.5088298    0.0826959    2.4228857 
C     0.8555480    0.3687404    2.4922140 
C     1.5573371    0.7982106    1.3591356 
C    -1.2682258    1.0287663   -1.2087305 
C    -1.2583153    2.5290016   -1.4485001 
C    -1.8132382    3.3875271   -0.4931482 
C    -1.7396856    4.7705679   -0.6423128 
C    -1.0743321    5.3122121   -1.7397536 
C    -0.5062188    4.4879473   -2.7175255 
C    -0.6298003    3.0950224   -2.5717418 
C     0.2925829    5.1023344   -3.8550505 
C     1.4123684    5.9652371   -3.3166343 
C     1.3615567    7.3639143   -3.3597942 
C     2.3492977    8.1349584   -2.7449296 
C     3.3824017    7.5127061   -2.0418611 
C     3.4662689    6.1168557   -1.9772711 
C     2.4946397    5.3624384   -2.6561550 
C     4.4898286    5.4115971   -1.1130508 
C     3.8189840    4.7582533    0.0833061 
C     3.0912815    5.5433200    0.9842295 
C     2.3918945    4.9626000    2.0397290 
C     2.3851601    3.5771545    2.1842039 
C     3.1001721    2.7568247    1.3044307 
C     3.8360402    3.3650419    0.2723101 
C     3.0008085    1.2453432    1.4284101 
O     4.5515057    2.5675866   -0.6143307 
O     2.5625381    3.9852534   -2.5970093 
O    -0.0698232    2.2582170   -3.5309440 
O     1.5254520    1.3369058   -0.9797466 
H     3.5884578    0.7861190    0.6231363 
H     3.4317134    0.9150976    2.3867401 
H     1.7896466    3.1126650    2.9731340 
H     3.0520418    6.6240379    0.8303266 
H     5.2345896    6.1475075   -0.7723631 
H     5.0221733    4.6415542   -1.6863648 
H     4.1324734    8.1148890   -1.5234190 
H     0.5304100    7.8495111   -3.8769025 
H     0.6920498    4.2946120   -4.4817200 
H    -0.3635798    5.7216325   -4.4867041 
H    -0.9610032    6.3946841   -1.8307917 
H    -2.2813996    2.9568421    0.3948093 
H    -0.8084399    0.5281896   -2.0706454 
H    -2.3049146    0.6667735   -1.1272130 
H    -2.2752349    0.0815042    1.1770702 
H     1.3890652    0.2665506    3.4403305 
H    -1.0409609   -0.2582951    3.3123302 
H    -2.1759749    5.4269333    0.1121950 
H     2.3006426    9.2239224   -2.7933099 
H     1.8277010    5.5882024    2.7330889 
C     3.3583869    3.4110508   -3.6334381 
H     3.5133383    2.3610555   -3.3642687 
H     2.8484617    3.4749508   -4.6107257 
H     4.3388652    3.9104867   -3.7116875 
C     5.8895339    2.3194829   -0.1797167 
H     5.9064786    1.7938866    0.7910462 
H     6.3586241    1.6875490   -0.9450453 
H     6.4595758    3.2597099   -0.0796153 
C     2.0037386    0.2651799   -1.7920904 
H     2.3221710    0.7089807   -2.7411269 
H     2.8568062   -0.2480812   -1.3146404 
H     1.2102960   -0.4753196   -1.9900342 
C    -0.9757873    1.9465901   -4.5905787 
H    -1.8732250    1.4271391   -4.2113366 
H    -1.2974729    2.8569853   -5.1259603 
H    -0.4373053    1.2869289   -5.2833967 
