68
Energy = -1538.364454329
C     1.0653954    1.0811657    0.0174184 
C    -0.3391959    1.1128585    0.0994329 
C    -0.9193615    1.1792401    1.3689312 
C    -0.1335397    1.2171912    2.5193075 
C     1.2543158    1.1771555    2.4098088 
C     1.8842231    1.0970693    1.1631432 
C    -1.1878220    1.1367216   -1.1711493 
C    -1.4550768    2.5800211   -1.6006286 
C    -2.5422162    3.2978164   -1.0903604 
C    -2.7820880    4.6164593   -1.4690089 
C    -1.9257451    5.2432307   -2.3724332 
C    -0.8187478    4.5745307   -2.9015442 
C    -0.5964927    3.2449325   -2.4972836 
C     0.1654700    5.2712572   -3.8397535 
C     1.2560376    5.9760005   -3.0313301 
C     1.0722402    7.2763599   -2.5490117 
C     2.0575892    7.9186903   -1.8032083 
C     3.2540645    7.2602493   -1.5254802 
C     3.4819840    5.9563712   -1.9732354 
C     2.4663371    5.3279738   -2.7176246 
C     4.7621560    5.2007154   -1.6190372 
C     4.5993799    4.4877409   -0.2758909 
C     4.8791059    5.1409221    0.9292926 
C     4.7195181    4.4995609    2.1552704 
C     4.2704496    3.1807590    2.1925563 
C     3.9655459    2.4879139    1.0180004 
C     4.1297004    3.1618558   -0.2065432 
C     3.4091036    1.0651656    1.0482586 
O     3.8279248    2.4586989   -1.3606254 
O     2.7089441    4.0363932   -3.1548664 
O     0.5019068    2.5957664   -3.0354225 
O     1.6238850    1.0133023   -1.2480410 
H     3.6618528    0.5935835    0.0871181 
H     4.1455949    2.6842797    3.1554456 
H     5.2328856    6.1722413    0.9077711 
H     4.9123517    4.4303399   -2.3897350 
H     4.0215557    7.7674361   -0.9398694 
H     0.1393370    7.7983993   -2.7644289 
H     0.6498560    4.4910453   -4.4453354 
H    -2.1174310    6.2765392   -2.6637361 
H    -3.2174829    2.8133792   -0.3842230 
H    -0.6004631    0.6552019   -1.9668693 
H    -2.0055644    1.2120121    1.4606387 
H     1.8628509    1.2059033    3.3143753 
H     1.8362130    3.5437694   -3.2466389 
H     3.5419406    3.0987796   -2.0827318 
H     2.5346418    1.4412868   -1.2366044 
H     0.8262289    1.8907435   -2.3945793 
H     4.9466228    5.0271462    3.0824450 
H    -0.6034390    1.2762044    3.5017830 
H    -3.6377818    5.1558523   -1.0610581 
H     1.8938253    8.9337274   -1.4392617 
C     4.0653311    0.1897994    2.1239218 
H     3.6677447   -0.8328628    2.0707422 
H     5.1520763    0.1533925    1.9671039 
H     3.8907476    0.5589523    3.1427030 
C     6.0122546    6.0885314   -1.6719933 
H     6.9082645    5.4904130   -1.4571157 
H     6.1161877    6.5310637   -2.6721340 
H     5.9838469    6.9126635   -0.9477389 
C    -0.5239411    6.2052040   -4.8429251 
H     0.2199931    6.6407780   -5.5238405 
H    -1.2575525    5.6428550   -5.4366615 
H    -1.0557903    7.0354307   -4.3607519 
C    -2.4725038    0.3074982   -1.0455150 
H    -3.1511080    0.6828510   -0.2688713 
H    -3.0216166    0.3172150   -1.9969481 
H    -2.2244534   -0.7325252   -0.7931379 
