68
Energy = -1538.389042811
C    -0.3785056    1.1847572    0.0940540 
C    -0.9948415    1.3049957    1.3412402 
C    -0.2620783    1.3674328    2.5318181 
C    -1.2093873    1.1921897   -1.1763331 
C    -1.4051363    2.5858918   -1.7480501 
C    -2.5073687    3.3532360   -1.3546346 
C    -2.7279897    4.6474176   -1.8326290 
C    -1.7962512    5.1756659   -2.7334400 
C    -0.6743995    4.4563075   -3.1500941 
C    -0.4934474    3.1553674   -2.6518448 
C     0.3470957    5.0938970   -4.0742225 
H    -0.1685745    5.8402963   -4.6949025 
H    -1.9433077    6.1860719   -3.1253817 
H    -3.2238266    2.9137917   -0.6550342 
H    -0.7617726    0.5264862   -1.9295681 
H    -2.2001888    0.7781707   -0.9417691 
H    -2.0864790    1.3588622    1.3808687 
C    -0.9548032    1.4671237    3.8652722 
H    -1.8252337    2.1370953    3.8159087 
H    -1.3202831    0.4833317    4.2012569 
H    -0.2759629    1.8481741    4.6403276 
C    -3.9137541    5.4571444   -1.3786421 
H    -4.6938218    4.8157308   -0.9463762 
H    -3.6241315    6.1896440   -0.6081082 
H    -4.3590394    6.0209387   -2.2110195 
H     0.4317487    7.6793555   -3.2999814 
O     0.5989090    2.4407169   -3.1097794 
H     0.8814572    1.7689973   -2.4134049 
H     0.7600937    4.3430928   -4.7645947 
H     3.0942674    9.8455822   -1.9918518 
H     1.7907915    9.4020478   -0.8769841 
H     1.4118198    9.7848443   -2.5665721 
C     1.0238271    1.1152416    0.0469338 
C     1.1308934    1.3080906    2.4406043 
C     1.7979071    1.1772635    1.2173074 
C     1.4647892    5.7975097   -3.3232783 
C     1.3357631    7.1496415   -2.9866665 
C     2.3217738    7.8432658   -2.2801446 
C     3.4696533    7.1372939   -1.9030508 
C     3.6434376    5.7849030   -2.2046250 
C     2.6316772    5.1261850   -2.9225164 
C     4.8730228    5.0407549   -1.7168814 
C     4.6712873    4.3889018   -0.3593816 
C     4.9726703    5.1005827    0.8071694 
C     4.7880479    4.5610330    2.0828046 
C     4.2689085    3.2646167    2.1714584 
C     3.9419126    2.5153820    1.0392423 
C     4.1550705    3.0894180   -0.2249873 
C     3.3163427    1.1399064    1.1833703 
O     3.8598512    2.3192950   -1.3355459 
O     2.8409110    3.7988732   -3.2511289 
O     1.6157484    0.9594747   -1.1937385 
H     3.6664114    0.4751075    0.3794314 
H     3.6667877    0.7000127    2.1277827 
H     4.1046103    2.8199035    3.1570412 
H     5.3730944    6.1134993    0.7091978 
H     5.6989137    5.7607120   -1.6292557 
H     5.1870232    4.2922746   -2.4598445 
H     4.2593820    7.6546050   -1.3509230 
H     1.7280139    1.3583164    3.3553932 
H     1.9542007    3.3277590   -3.3406978 
H     3.6153072    2.9183365   -2.1084872 
H     2.5415464    1.3577224   -1.1804411 
C     5.1612418    5.3345461    3.3198682 
H     4.4489303    5.1519016    4.1371504 
H     6.1591730    5.0451941    3.6871179 
H     5.1840014    6.4152097    3.1235789 
C     2.1466840    9.2935484   -1.9142676 
