64
Energy = -1602.530543332
C     0.9300845    0.8193033   -0.0370029 
C    -0.4625821    0.7061514    0.1622304 
C    -0.9296009    0.3009129    1.4145315 
C    -0.0462982    0.0328298    2.4645934 
C     1.3236601    0.2375917    2.2776384 
C     1.8266626    0.6581200    1.0451322 
C    -1.3871685    1.1488379   -0.9610782 
C    -1.1854260    2.6540564   -1.1967018 
C    -1.2131247    3.4907477   -0.0791185 
C    -0.8918598    4.8399879   -0.1804447 
C    -0.4259935    5.3333437   -1.3953253 
C    -0.3762820    4.5351726   -2.5435400 
C    -0.8844270    3.2160384   -2.4606548 
C     0.2808701    5.1115029   -3.8131563 
C     1.4196539    6.0349566   -3.4073633 
C     1.3062858    7.4263769   -3.4105504 
C     2.2953906    8.2310066   -2.8378716 
C     3.3900926    7.6297986   -2.2094634 
C     3.5469201    6.2420388   -2.2014383 
C     2.5864863    5.4481448   -2.8642162 
C     4.6373163    5.5380478   -1.4089472 
C     3.9802234    4.7510305   -0.2639738 
C     3.0499738    5.4245708    0.5303525 
C     2.2995199    4.7524507    1.4890681 
C     2.3996065    3.3671993    1.5750792 
C     3.3135161    2.6456271    0.7991796 
C     4.1980225    3.3710242   -0.0355561 
C     3.2672686    1.1057943    0.8490484 
O     5.2524455    2.7297969   -0.6204529 
O     2.7825804    4.1105605   -2.9237450 
O    -1.0737179    2.4926866   -3.6034837 
O     1.3833307    1.1340847   -1.2724830 
H     3.8763240    0.7519231    1.7031665 
H     1.7251371    2.8224283    2.2358790 
H     2.8874197    6.4910161    0.3611905 
H     5.2995754    6.3039149   -0.9729992 
H     4.1326848    8.2481687   -1.6981664 
H     0.4095166    7.8817623   -3.8389266 
H    -0.4722974    5.6920208   -4.3800426 
H    -0.0546042    6.3567937   -1.4495557 
H    -1.4541577    3.0602879    0.8950481 
H    -2.4285012    0.9803345   -0.6408674 
H    -2.0076616    0.2103222    1.5722019 
H     2.0166731    0.1031726    3.1123861 
H     2.0860322    3.7818819   -3.6202503 
H     5.6295674    3.3981844   -1.3063551 
H     2.4043479    0.9513080   -1.2233437 
H    -1.2650809    1.5319737   -3.2875542 
H     1.5859112    5.2918729    2.1117781 
H    -0.4261915   -0.2969046    3.4319428 
H    -0.9299185    5.4856622    0.6968843 
H     2.1954177    9.3166898   -2.8481645 
N     3.7415651    0.5227899   -0.4335793 
H     3.8726003   -0.4840520   -0.3289178 
H     4.6187924    0.9718514   -0.7175994 
N     5.4911811    4.6699375   -2.2706588 
H     4.8851454    4.2549788   -2.9867196 
H     6.1968608    5.2357052   -2.7418944 
N     0.8654846    4.0255223   -4.6431322 
H     0.1854733    3.2655449   -4.7524702 
H     1.1384611    4.3950040   -5.5546256 
N    -1.1848854    0.3527044   -2.2061874 
H    -0.1831754    0.1442734   -2.2793636 
H    -1.6882401   -0.5316926   -2.1380746 
