64
Energy = -1602.523145891
C     1.0513931    1.0482226   -0.0166487 
C    -0.3504277    1.0885031    0.0760011 
C    -0.9327170    1.1663837    1.3439544 
C    -0.1421374    1.2061317    2.4915434 
C     1.2459596    1.1668768    2.3799606 
C     1.8665278    1.0773707    1.1290468 
C    -1.2168285    1.1055752   -1.1824563 
C    -1.4591089    2.5404484   -1.6526186 
C    -2.5440666    3.2709247   -1.1554529 
C    -2.7767515    4.5811517   -1.5677134 
C    -1.9145661    5.1853872   -2.4815026 
C    -0.8135442    4.4928795   -2.9923747 
C    -0.5959755    3.1713906   -2.5662209 
C     0.1637963    5.1774358   -3.9466067 
C     1.2771114    5.8794449   -3.1677842 
C     1.1093258    7.1993095   -2.7345030 
C     2.1101731    7.8526332   -2.0187879 
C     3.2963514    7.1855217   -1.7163272 
C     3.4971387    5.8632864   -2.1214588 
C     2.4768060    5.2210622   -2.8437847 
C     4.7724857    5.1149137   -1.7365870 
C     4.6025827    4.4169974   -0.3865430 
C     4.8988202    5.0967722    0.8000835 
C     4.7438485    4.4791455    2.0391848 
C     4.2774576    3.1671856    2.1079476 
C     3.9600536    2.4586444    0.9460036 
C     4.1241435    3.0976787   -0.2949560 
C     3.3920259    1.0424762    1.0271516 
O     3.8181081    2.3697764   -1.4340226 
O     2.7048166    3.9152458   -3.2483248 
O     0.4928978    2.4993344   -3.0987007 
O     1.6055640    0.9548241   -1.2835091 
H     3.6577785    0.5195063    0.0903089 
H     4.1489971    2.6661066    3.0679012 
H     5.2689882    6.1197932    0.7260866 
H     4.9491867    4.3364723   -2.5011593 
H     4.0917035    7.6790858   -1.1569657 
H     0.1777932    7.7070928   -2.9864442 
H     0.6290012    4.3930137   -4.5711960 
H    -2.0789693    6.2100686   -2.8163634 
H    -3.2111517    2.7795207   -0.4465167 
H    -0.6626798    0.5764866   -1.9791525 
H    -2.0207867    1.1962381    1.4099194 
H     1.8804621    1.1899588    3.2665178 
H     1.8273239    3.4276954   -3.3291823 
H     3.5330551    2.9958844   -2.1695736 
H     2.5213845    1.3736693   -1.2844320 
H     0.8158495    1.8053887   -2.4441203 
H     4.9827381    5.0229810    2.9541779 
H    -0.6093382    1.2724428    3.4750848 
H    -3.6295941    5.1347466   -1.1724273 
H     1.9638350    8.8829984   -1.6917209 
N     3.9458487    0.3567251    2.2049821 
H     4.9627426    0.3029926    2.1167157 
H     3.5883648   -0.6002283    2.2379543 
N     5.8952641    6.0625266   -1.6601291 
H     6.0293253    6.5008451   -2.5737279 
H     6.7521622    5.5534126   -1.4339037 
N    -0.5572518    6.1639527   -4.7658478 
H    -1.2763628    5.6864749   -5.3132785 
H     0.0938535    6.5972619   -5.4238888 
N    -2.5074952    0.4584000   -0.9002978 
H    -2.3445352   -0.5114174   -0.6216668 
H    -3.0716168    0.4435855   -1.7524721 
