64
Energy = -1602.566010369
C     1.0626701    1.1880573    0.0739273 
C    -0.3379551    1.2462124    0.1454580 
C    -0.9444546    1.3645113    1.3971217 
C    -0.1897718    1.4408161    2.5758905 
C     1.2060971    1.3820082    2.4712912 
C     1.8480514    1.2514839    1.2368581 
C    -1.1905023    1.2395661   -1.1109057 
C    -1.4370336    2.6325726   -1.6631744 
C    -2.5691453    3.3455964   -1.2584449 
C    -2.8296344    4.6426893   -1.7193902 
C    -1.9082096    5.2287150   -2.5983042 
C    -0.7610153    4.5513613   -3.0158776 
C    -0.5374183    3.2460674   -2.5505101 
C     0.2456405    5.2465381   -3.9136839 
C     1.3489662    5.9437048   -3.1354276 
C     1.1667546    7.2646170   -2.7173034 
C     2.1416370    7.9468301   -1.9776839 
C     3.3255204    7.2671603   -1.6595473 
C     3.5377527    5.9437906   -2.0496628 
C     2.5425332    5.2879888   -2.7910371 
C     4.8036053    5.2226543   -1.6219450 
C     4.6580776    4.5209367   -0.2830356 
C     5.0031845    5.1956497    0.8915488 
C     4.8645944    4.6020356    2.1530220 
C     4.3490699    3.3000566    2.2171031 
C     3.9835794    2.5991498    1.0661949 
C     4.1512103    3.2146265   -0.1841947 
C     3.3662682    1.2177871    1.1832554 
O     3.8366607    2.4774809   -1.3155722 
O     2.7874270    3.9826343   -3.1949648 
O     0.5775015    2.5721332   -3.0248696 
O     1.6434436    1.0386092   -1.1780398 
H     3.7042626    0.5780477    0.3545830 
H     3.7317019    0.7519570    2.1095617 
H     4.2222882    2.8189621    3.1909181 
H     5.3989125    6.2123941    0.8172797 
H     5.6120890    5.9625589   -1.5363268 
H     5.1125770    4.5066046   -2.3978127 
H     4.1025559    7.7801097   -1.0861723 
H     0.2389509    7.7781371   -2.9840260 
H     0.6774031    4.5302324   -4.6283530 
H    -0.2849776    6.0034692   -4.5087929 
H    -2.0845858    6.2439902   -2.9642981 
H    -3.2715613    2.8699455   -0.5683487 
H    -0.7300419    0.5995822   -1.8781407 
H    -2.1632398    0.7890716   -0.8674275 
H    -2.0357220    1.4045041    1.4538767 
H     1.8145259    1.4313877    3.3785182 
H     1.9111599    3.4882403   -3.2612461 
H     3.5645746    3.0956235   -2.0650072 
H     2.5510720    1.4777768   -1.1748600 
H     0.8846155    1.8929098   -2.3450629 
N     5.1687278    5.3149128    3.3233757 
H     5.4119309    4.7254141    4.1152282 
H     5.8609262    6.0481573    3.1929788 
N    -0.8167463    1.4976782    3.8298184 
H    -0.2477407    1.9239889    4.5566255 
H    -1.7447928    1.9125408    3.8085719 
N    -3.9453065    5.3608404   -1.2613293 
H    -4.2643588    6.0824533   -1.9025463 
H    -4.7205297    4.7745477   -0.9628705 
N     1.9702641    9.2954868   -1.6308656 
H     2.5011635    9.5816547   -0.8123006 
H     0.9976786    9.5798513   -1.5475361 
