92
Energy = -2368.815282553
C    -3.3724142   -0.5713484   -1.2739982 
H    -0.2511502   -3.2147263   -1.0065174 
H    -3.3828325   -1.6512564   -1.0933712 
C    -3.7283415   -0.0606966   -2.5227358 
H    -4.0121459   -0.7305782   -3.3353049 
C    -3.7071833    1.3233421   -2.6924230 
C     0.6530060   -2.7290854   -0.6349889 
H    -3.9747542    1.7732497   -3.6502046 
H    -0.5754777    2.3982015   -0.6978794 
C    -3.3289208    2.1301282   -1.6220395 
H     2.0106674   -3.7560256   -1.9866375 
C     1.9008678   -3.0304096   -1.1797880 
H     5.3786257   -0.1477508   -3.1658154 
C     5.1826451    0.9204654   -3.0568366 
H     5.3009225    1.3710290   -5.1799853 
C     5.1398373    1.7561950   -4.1723869 
C     4.9615835    1.4657904   -1.7944956 
H     2.3351053    2.2924105   -0.8315149 
H    -2.5516224    4.7404182   -4.8555507 
N    -1.2921617    5.3055147   -3.3177774 
C    -1.5063408    4.9142684   -4.5797250 
C    -0.4885569    4.7282111   -5.5158065 
H    -0.7208736    4.3995092   -6.5294845 
C    -0.0255898    5.5304242   -2.9305481 
O    -0.6088058    3.3042746   -1.1523504 
H    -3.2887726    3.2144921   -1.7293594 
C     0.1503500    6.0471934   -1.5027962 
H    -0.0354396    7.1312684   -1.5953021 
C     0.8232515    4.9746624   -5.1118634 
C     1.0617860    5.3853083   -3.8025883 
C     4.8821158    3.1115064   -3.9638805 
H     4.8476360    3.8056745   -4.8099675 
C     4.6956573    2.8375607   -1.6874490 
H     0.8925307    3.6062993   -1.4973029 
H     1.6558489    4.8420745   -5.8050819 
N     4.6649371    3.6491244   -2.7575582 
H     2.0780696    5.5715838   -3.4540876 
C     1.5627136    5.9601649   -0.9218421 
O     1.9060881    3.6381160   -1.5149075 
C     2.3542273    4.7939688   -0.9245855 
N    -3.0040189    0.1911112   -0.2374633 
C    -2.9742025    1.5230696   -0.4098225 
H     0.8672565    1.0838552   -0.0327697 
O    -0.1393987    1.1114884    0.0877266 
C    -0.4581330    1.0710628    1.4226157 
C     0.3961222    0.4456536    2.3530651 
C    -1.6869760    1.6360836    1.8098670 
C    -0.0098294    0.4190883    3.6940885 
C    -2.0456665    1.5764891    3.1580634 
H     0.6423902   -0.0621753    4.4263380 
C    -1.2158028    0.9784342    4.1042346 
H    -1.5133408    0.9384539    5.1524432 
C     0.5714671   -1.7882787    0.3887083 
H    -0.3919987   -1.5215464    0.8240813 
H    -3.0007159    2.0075174    3.4662954 
C    -2.6191491    2.3449466    0.8291504 
H     4.0166634   -2.5836483   -1.0531716 
H     4.9743971    0.8345423   -0.9054842 
C     3.0164209   -2.3721763   -0.6611175 
O     2.3749081    1.4457152   -0.2745700 
C     1.7458487   -0.1820344    2.0007797 
H     1.9841373   -0.8136509    2.8740469 
C     1.7473051   -1.1689918    0.8334232 
C     2.8812406    0.8392088    1.9642276 
N     2.9531712   -1.4641123    0.3201184 
C     3.6731647    1.0078928    3.1019427 
C     3.1434817    1.6499509    0.8447024 
H     3.4800186    0.3785348    3.9734044 
C     4.6968816    1.9524429    3.1402772 
H    -3.5756474    2.4161111    1.3753530 
C    -0.9215361    5.5721752   -0.5236454 
C    -1.2475067    4.2149470   -0.3474316 
C    -2.2222114    3.8015916    0.5830138 
C    -2.8513984    4.7914577    1.3499164 
H    -3.6087731    4.4855231    2.0751063 
C    -2.5407481    6.1393786    1.2012270 
H    -3.0495778    6.8917563    1.8044482 
C    -1.5832040    6.5178459    0.2623527 
H    -1.3401683    7.5741008    0.1277864 
H     1.4961697    8.0204441   -0.3153709 
C     2.0985571    7.1092484   -0.3249390 
C     3.3697856    7.1147308    0.2401973 
H     3.7678147    8.0236923    0.6920946 
C     3.6462920    4.7754486   -0.3681699 
H     5.3072178    2.0685217    4.0363045 
C     4.1340438    5.9500655    0.2082959 
H     5.1385618    5.9460004    0.6370726 
C     4.1814258    2.6034986    0.8469538 
C     4.5153679    3.5197991   -0.3314529 
H     5.5243067    3.9012081   -0.0973094 
C     4.9416864    2.7355265    2.0167291 
H     5.7494983    3.4706451    2.0327222 
