92
Energy = -2368.781918995
H    -5.9933215   -2.4058367    7.8036290 
C    -5.7570210   -2.9244887    1.9174202 
H    -6.6692042   -2.8639745    1.3204444 
C    -5.5467374   -2.0247099    2.9532346 
H    -4.9280542   -4.6406427    0.8615051 
C    -5.5846945   -1.7858456    6.9914923 
H    -6.0744745   -2.0953973    6.0607018 
H    -6.2597906   -1.2501370    3.2207236 
C    -5.8892088   -0.3212084    7.2739902 
C   -10.4658058   -0.6583581    6.1337149 
H   -12.1711897   -1.1003906    4.8826059 
N    -9.1562494   -0.3799937    6.2474288 
C   -11.1049633   -0.8776715    4.9169264 
H   -10.7971927   -0.9364202    2.7690546 
C   -10.3381857   -0.7908754    3.7484121 
C    -8.4476860   -0.3114172    5.1266650 
C    -8.9844110   -0.4999183    3.8410166 
H   -11.0230993   -0.7061654    7.0739077 
H    -6.6034262   -0.1550924   -0.2143617 
O    -7.1064875   -0.0522935    5.1994814 
H    -8.3565092   -0.3887809    2.9572501 
C    -4.7979209   -3.9127624    1.6622650 
H    -4.8103259   -0.3514493    9.1337564 
C    -6.8572924    0.6185651    0.5130236 
H    -5.0720346    0.3384506    1.7330902 
C    -4.3613702   -2.1458569    3.6934021 
N    -3.4503196   -3.0917521    3.4861617 
C    -3.6740808   -3.9571145    2.4835727 
H    -2.9053647   -4.7214032    2.3364058 
H    -3.8631550   -2.7542942    8.9183689 
C    -4.0844295   -1.9854245    6.9176520 
C    -3.3389077   -2.4254592    8.0183421 
O    -4.1544481   -1.2113385    4.6711968 
C    -1.2842931   -0.8895484    4.5382661 
H    -0.2194943   -1.1651713    4.5646110 
H    -1.6972513   -1.2853555    3.6042049 
C    -1.9842908   -1.5242270    5.7193138 
C    -1.2768392   -1.9668366    6.8439911 
C    -3.3798434   -1.6025215    5.7694403 
C    -1.9446832   -2.4393309    7.9742035 
H    -1.3754639   -2.7983470    8.8330037 
H    -0.1850912   -1.9417777    6.8244265 
C    -5.3863214    0.2655179    8.4418170 
C    -6.6104872    0.4962323    6.3931506 
C    -5.5864927    1.6144896    8.7177071 
C    -6.7862140    1.8704206    6.6200719 
C    -6.2685949    2.4105616    7.8015856 
O    -5.5474147    2.0655914    3.5594056 
C    -6.4412291    3.7668007    5.0482573 
C    -6.3465620    5.0831057    5.5171929 
C    -6.3745469    1.8776456    2.4854679 
C    -7.4516417    2.7930415    5.6123622 
H    -7.0860608    5.4414769    6.2366810 
H    -7.9175756    2.2272053    4.7986095 
H    -8.2512256    3.3588724    6.1133258 
C    -8.0270380    1.3761788    0.3744022 
H    -6.3868088    3.4800101    7.9873355 
H    -8.7182794    1.2120285   -0.4521605 
N    -7.4654525    2.6270420    2.3584823 
C    -8.2731453    2.3725219    1.3158388 
H    -9.1634329    3.0037371    1.2405530 
C    -6.0064427    0.8709855    1.5804330 
H    -5.1904632    2.0505217    9.6359675 
C    -5.4962345    3.3546567    4.1029454 
C    -5.3322150    5.9333076    5.0757983 
H    -5.2873003    6.9616619    5.4376203 
H     0.0329681   -0.7008429   -1.4830898 
C    -1.8228712   -1.0447963   -0.3970307 
H    -2.1980516   -1.8133988   -1.0748707 
C    -2.5706097   -0.6770728    0.7127609 
H    -3.5241510   -1.1492889    0.9483196 
C    -0.5831410   -0.4346964   -0.6244978 
H     0.8158226    1.0194426    0.1610826 
C    -0.1493342    0.5207697    0.2899177 
N    -0.8580556    0.8953169    1.3682592 
C    -2.0344054    0.3096867    1.5584510 
O    -2.7982791    0.6785067    2.6316017 
C    -2.1648579    1.3647117    3.6801606 
C    -2.3721785    2.7438237    3.8191119 
C    -1.4101324    0.6235781    4.6031742 
C    -1.7467180    3.3908120    4.8920647 
C    -3.2816654    3.5464374    2.8991236 
C    -0.8025980    1.3138657    5.6567160 
H    -1.9067011    4.4622097    5.0251693 
C    -0.9531995    2.6909332    5.7956241 
H    -3.6628466    2.9026368    2.0977732 
H    -2.7016363    4.3544617    2.4284621 
C    -4.4128969    4.1493535    3.7071090 
H    -0.2222111    0.7501364    6.3899375 
H    -0.4708332    3.2153089    6.6217766 
C    -4.3586709    5.4606396    4.1955610 
H    -3.5389643    6.1110672    3.8825563 
