92
Energy = -2368.864099351
O    -0.0298428    1.0149198   -0.1843905 
C    -0.5341594    0.8162187    1.0860156 
C     0.2176080    0.1464465    2.0671441 
C    -1.8315820    1.2875564    1.3522137 
C    -2.6122332    2.0711488    0.3129251 
H    -3.6839739    1.9112749    0.4947434 
H    -2.4043704    1.6880301   -0.6971821 
C    -2.3361872    3.5625792    0.3895416 
C    -1.2802114    4.1631950   -0.3183781 
O    -0.4748492    3.4241495   -1.1607503 
H    -0.4499117    2.4643680   -0.8587388 
C    -2.3625168    1.0873990    2.6238516 
C    -3.1181913    4.3721042    1.2153081 
H    -3.9469566    3.9035281    1.7489626 
H    -3.3686871    1.4384543    2.8571481 
H     1.1123772    3.8769881   -1.2024338 
H     0.9740434    1.0614776   -0.1417331 
C     1.6246767   -0.3596232    1.8009868 
H     1.7313881   -0.6822213    0.7547787 
H     1.7919412   -1.2498565    2.4228143 
C     2.6784506    0.6727578    2.1544654 
C     3.0776900    1.6505548    1.2266844 
O     2.5498095    1.5731981   -0.0454587 
C     3.9935854    2.6593423    1.5753791 
C     4.4980466    2.6677563    2.8773403 
H     2.5378192    2.4867795   -0.4687026 
C     4.4039554    3.7483056    0.5987017 
H     5.1845103    3.4714385    3.1494936 
H     4.4668586    3.3456777   -0.4234083 
H     5.4160569    4.0823775    0.8656526 
C     3.4824911    4.9536498    0.6388469 
C     2.3232386    5.0108317   -0.1545369 
O     2.1003771    3.9708088   -1.0348479 
H     0.3302695    5.7045460   -1.9007731 
C    -1.0201295    5.5409601   -0.2158335 
C    -2.8878510    5.7485082    1.3454288 
C    -1.8366834    6.3116742    0.6073132 
H    -1.6624563    7.3845799    0.6993005 
C    -3.7082524    6.6057420    2.2302059 
N    -3.6354668    7.9386320    2.0223732 
C     0.1705435    6.1688294   -0.9162119 
H    -0.0587559    7.2271981   -1.1020598 
H    -4.2708317    9.8174530    2.5931153 
H     4.6351539    5.9905299    2.1379304 
C     3.7392138    6.0043734    1.5157258 
C     1.4353738    6.0982830   -0.0780214 
H     1.0416787    7.9702409    0.8724541 
C     1.7245686    7.1198557    0.8282353 
C     2.8671249    7.0955853    1.6391831 
N     4.4439938    8.2607164    3.0425940 
C     3.1686672    8.1747040    2.6059831 
H    -4.5231607    4.9945950    3.4420874 
C    -0.3472729   -0.0129285    3.3335224 
C    -1.6321552    0.4544397    3.6398276 
N    -3.5637662    0.4201994    5.0831399 
C    -2.2212239    0.3050432    4.9890361 
C    -1.4225374    0.0808220    6.1263923 
C    -4.1308005    0.2913612    6.2866241 
C    -2.0297230   -0.0572991    7.3700862 
C    -3.4184937    0.0422497    7.4610726 
H    -0.3364091    0.0430972    6.0411146 
H    -1.4231317   -0.2290408    8.2610410 
H    -3.9374653   -0.0596353    8.4146450 
H     0.2357080   -0.5415603    4.0898029 
H    -5.2208109    0.3915898    6.3134890 
C     3.2149363    0.7154552    3.4381058 
C     4.1289637    1.7053395    3.8275247 
H     6.3335549    3.0448584    4.8307568 
H     2.9182217   -0.0281502    4.1787048 
C     4.6584659    1.7118884    5.2101931 
N     4.0018541    0.9511400    6.1137268 
C     5.7924307    2.4614981    5.5752391 
C     4.4426179    0.9338966    7.3750658 
H     3.8783880    0.3022012    8.0689758 
C     5.5460047    1.6606400    7.8254367 
H     5.8557087    1.6116829    8.8697227 
C     6.2343174    2.4381237    6.8936819 
H     7.1122567    3.0154727    7.1888099 
C    -4.5098115    6.0682185    3.2550261 
C    -4.3625527    8.7461996    2.8002462 
C    -5.2653296    6.9221766    4.0514357 
C    -5.2010978    8.2969115    3.8218655 
H    -5.7759061    9.0039479    4.4207385 
H    -5.8899693    6.5185326    4.8502734 
H     1.1403246    8.9448678    2.7437899 
C     2.1745395    9.0571011    3.0691487 
C     3.8381298   10.1542330    4.4085869 
C     4.7544858    9.2232063    3.9163124 
H     5.7996489    9.2533055    4.2412450 
C     2.5161649   10.0575314    3.9729890 
H     1.7552049   10.7474725    4.3419607 
H     4.1518762   10.9220497    5.1163917 
