108
Energy = -2826.686084991
O     0.3926209    1.9436943    0.7820430 
C     0.1549856    2.1271509    2.1274719 
C    -1.3663597    4.0570719    1.4508484 
H    -1.6144472    3.4953455    0.5374783 
H     0.3564742    3.2673264   -0.1700124 
C    -0.7548497    3.1341637    2.4882956 
H    -2.3158644    4.4392153    1.8507211 
H     1.2801143    1.4931522    0.6199879 
H     1.4754795   -0.2676988    1.7793581 
C     3.6689809    1.2629806    1.2829148 
O     2.8290717    1.1267493    0.1875524 
C     4.9434770    1.8402768    1.1456538 
H     3.0270067    1.8793444   -0.4467723 
H     5.0430181    1.8120961   -1.0237524 
C     5.4711060    2.3704373   -0.1783228 
H     6.5562450    2.1985147   -0.2073357 
O     3.0607692    3.3811097   -1.2051887 
C     1.7915780    0.2519003    2.6964435 
O     0.5913526    4.0843314   -0.7111943 
C    -0.4841561    5.2480893    1.1195347 
C     0.4673403    5.2052267    0.0853858 
H     2.1241163    3.7460053   -1.1421457 
C     1.1498852    7.4573744    0.5693575 
C     1.2947483    6.3027850   -0.2042020 
H     1.7905529    8.3175447    0.3559196 
H     2.4849621    7.2428803   -1.7049424 
H     1.9471937    5.6235602   -2.1454683 
C     2.3323356    6.2287046   -1.3104095 
H     4.4695021    7.6715566   -0.4833028 
C     4.6784977    6.6003571   -0.4611342 
C     3.6820399    5.7017746   -0.8531524 
C     5.2178274    3.8579839   -0.3351964 
C     3.9730937    4.3270622   -0.7908602 
C     6.1853551    4.7950231    0.0291141 
C     5.9350146    6.1709430   -0.0285003 
H     7.1590328    4.4413800    0.3780968 
H     6.7434751    8.1679091    0.0122344 
C     6.9931289    7.1618445    0.3743088 
H     7.9770248    6.8635775   -0.0117024 
H     3.7370459    9.8832543    2.2059958 
N     5.3666026    8.6306903    1.9482430 
C     0.4251072    1.4983344    4.4311426 
C    -1.0595851    3.2916831    3.8416816 
C    -0.4916363    2.4790216    4.8255801 
C    -0.8752237    2.6643615    6.2627222 
H    -1.7781910    3.2816193    6.3596486 
N    -1.2670969    3.7780090    8.6748531 
O     0.2244067    3.3221732    6.9530313 
H    -1.0691612    1.7047822    6.7685058 
H    -1.7667838    4.0720156    4.1351434 
C     0.7699607    1.3052837    3.0906601 
H    -2.5049463    4.2752036   10.2570536 
C    -0.0362318    3.8500474    8.1722878 
C    -1.4827962    4.3495093    9.8743511 
H     0.8822698    0.8566298    5.1888218 
C     3.1909755    0.8215485    2.5292203 
H     1.8210161   -0.5071160    3.4905874 
C     3.9978698    1.0156457    3.6508108 
H     3.6099471    0.7372889    4.6337902 
C     5.2361717    1.6566062    3.5612108 
C     5.6987885    2.0365131    2.3033548 
C     5.9284377    2.1336776    4.8116049 
O     5.0016779    2.8906002    5.6370275 
H     6.2447232    1.3123231    5.4697720 
H     6.8020006    2.7500720    4.5529918 
H     6.6455163    2.5761554    2.2282827 
C    -0.5967521    6.4254577    1.8607918 
C     0.2102195    7.5391593    1.6034324 
H    -1.3280019    6.4855968    2.6685433 
C     0.0769514    8.7924456    2.4244811 
C    -0.4968138    4.9987565   10.6077278 
H    -0.7275875    5.4450689   11.5746395 
C     1.0436785    4.4698496    8.8335574 
H     2.3020712    8.5334649    5.7593734 
O     0.9199580    8.7701366    3.6139521 
C     1.2791448    8.1737266    5.8582392 
C     0.4133892    8.2220354    4.7479125 
C     0.7925697    7.6307505    7.0358057 
H     1.4364469    7.5631260    7.9139384 
C    -0.5241146    7.1514238    7.0850280 
N    -0.8369058    7.7654980    4.7731650 
H    -0.9350349    6.7092954    7.9919033 
C    -1.2882548    7.2421088    5.9291179 
H    -2.3189070    6.8748616    5.9128808 
C     0.7970793    5.0489145   10.0673619 
H     2.0273240    4.4929587    8.3654252 
H     1.6058862    5.5416868   10.6098416 
H     0.4455519    9.6618211    1.8644155 
H    -0.9638396    8.9603911    2.7298696 
O     7.2019746    7.2043497    1.8131578 
H     2.5750169    3.5611344    6.2362299 
C     4.3084141    3.8731700    4.9774072 
C     3.0011460    4.1293789    5.4122013 
H     7.2779214    7.2577326    4.3766204 
H     5.7046918    8.5882339    5.8185342 
H     2.2628891    6.4036883    2.9898359 
H     1.2171136    5.2485797    4.9868052 
C     2.2507711    5.0551974    4.6990727 
N     4.8827935    4.4873660    3.9465720 
C     2.8231731    5.6904906    3.5915176 
C     4.1373343    5.3740869    3.2630460 
C     6.3221378    7.9262653    2.5524176 
C     6.4890146    7.8751953    3.9492660 
C     5.6108265    8.6073482    4.7313929 
C     4.5981999    9.3553395    4.1149826 
H     3.8838711    9.9406797    4.6928466 
C     4.5204223    9.3267811    2.7286832 
H     4.6174065    5.8333697    2.3965760 
