95
Energy = -2405.911971822
C    -0.3523359    0.8873056    0.1592583 
C    -1.0434715    0.7896833    1.3704425 
C    -0.3532880    0.7016456    2.5797979 
C    -1.1144472    1.0833442   -1.1379898 
C    -1.3879730    2.5528521   -1.3990106 
C    -2.5221802    3.1476255   -0.8391380 
C    -2.7612267    4.5137612   -0.9719731 
C    -0.7341618    4.7384946   -2.2907351 
C    -0.4881096    3.3676432   -2.1075152 
H    -3.2314979    2.5451278   -0.2691196 
H    -0.5717527    0.6278349   -1.9784712 
H    -2.0776630    0.5598334   -1.0618351 
H    -2.1351842    0.7928202    1.3741547 
O    -1.0328743    0.6295395    3.7877657 
C    -1.6246676    1.8804328    4.2035481 
C    -0.5728132    2.9392685    4.5484868 
N    -1.1075005    4.1670707    5.1331182 
H    -2.2221381    1.6307253    5.0920949 
H    -2.3055561    2.2600980    3.4207787 
H    -1.5956402    3.9617516    6.0076816 
H    -3.7243132    4.1601745    2.1072613 
H    -2.0758721    4.6106759    1.6614186 
O     0.6679300    2.8435787   -2.6621383 
H    -1.7884483    4.6327937    4.5022328 
H     0.1563105    2.4933620    5.2464289 
O    -0.9073195   -0.1296561    6.7833841 
H    -0.0098673    3.2012903    3.6381374 
C     0.0501239   -0.5184586    6.2317157 
C    -3.0564253    5.0233470    1.9487671 
O    -3.8885145    5.0618498   -0.3830869 
O     1.0241887   -0.9155093    5.7169090 
H     0.3593420    5.5986113    5.1258426 
H     0.9687708    2.0529351   -2.1205380 
C     1.0523357    0.8916903    0.1822667 
C     1.0387315    0.6616472    2.5789350 
C     1.7628011    0.7560542    1.3872381 
C     4.4228308    4.4137118    0.7408792 
C     4.2247711    4.0964035    3.1438060 
C     3.8699385    2.7617294    2.9424074 
C     3.7621116    2.2378021    1.6508896 
C     4.0196636    3.0798872    0.5564345 
C     3.2777811    0.8149159    1.4449560 
O     3.8746589    2.5446934   -0.7130865 
O     2.8282151    4.3653452   -2.3476158 
O     1.7137576    1.0223102   -1.0273917 
H     3.7246061    0.3800539    0.5396495 
H     3.6160017    0.2019313    2.2919179 
H     3.6661335    2.1248496    3.8054346 
H     5.0569732    4.8200010   -1.2937526 
H     1.5638980    0.5674643    3.5301262 
H     1.9946171    3.8666960   -2.6034858 
H     3.6294635    3.2763231   -1.3563058 
H     2.6042963    1.4613407   -0.8735360 
H     2.4399134    3.9603496    5.0890394 
O     4.3153499    4.6306952    4.4184819 
C     4.5203626    4.9027039    2.0466721 
C     3.0390712    4.8884988    5.0376525 
H     3.2787289    5.1984364    6.0659553 
N    -2.8997602    5.7518794    3.2065012 
H    -2.9103148    6.6760391    0.5419413 
C    -3.6103200    5.8561011    0.7877935 
H    -4.5769124    6.3028425    1.0652801 
H    -3.8018760    6.1116239    3.5259928 
H    -2.2620317    6.5653146    3.1074040 
C    -1.8786966    5.2984111   -1.7157911 
C     0.2648028    5.6226323   -3.0135498 
H    -0.2794903    6.4486092   -3.4920890 
H    -2.0831653    6.3635761   -1.8404740 
H    -0.9985960    8.5557018    1.0652152 
H     0.0355654    7.9201607   -1.5845874 
H    -0.9981962    8.9127817    3.4516011 
N    -0.7891558    7.9842667    3.0781302 
C    -0.2474720    8.0888482    1.7241674 
H    -0.0818276    7.0708204    1.3361764 
H    -0.1175551    7.5354623    3.7304293 
H     0.7650180    5.0645840   -3.8178004 
H     0.9198339    9.8994353    2.0218718 
N     1.0145072    6.3939049    4.9998726 
H     1.2238837    6.7628327    5.9301151 
H     1.9868143    5.6445817    3.3080288 
C     2.2448929    5.9871869    4.3229295 
H     2.9004149    6.8653634    4.1986708 
H     1.8557881    8.3874059    2.1914146 
C     1.0561304    8.8866967    1.6135378 
C     1.2770037    6.2120393   -2.0490705 
C     0.9698559    7.3968935   -1.3743257 
C     1.8271460    7.9214359   -0.4094915 
C     3.0373629    7.2801980   -0.1413595 
C     3.3787566    6.0936815   -0.7967888 
C     2.4800993    5.5573281   -1.7338419 
C     4.6523080    5.3578895   -0.4246016 
H     4.8141441    5.9389577    2.2223979 
H     5.4102528    6.0962612   -0.1280313 
H     3.7190985    7.7085186    0.5959873 
O     1.4714195    9.0876474    0.2474272 
