59
Energy = -1966.523977789
C     1.0038933    1.1658376    0.1123389 
C    -0.4046914    1.1582424    0.1669725 
C    -1.0355594    1.1066331    1.4127970 
C    -0.3025599    1.0898877    2.5968798 
C     1.0871956    1.1175302    2.5270286 
C     1.7620559    1.1616874    1.3017095 
C    -1.2787552    1.2872463   -1.0645916 
C    -1.3683679    2.6977725   -1.6311874 
C    -2.3885934    3.5122365   -1.1279483 
C    -2.5528535    4.8259909   -1.5560514 
C    -1.6917741    5.3317628   -2.5262822 
C    -0.6525519    4.5583111   -3.0517693 
C    -0.4899096    3.2345778   -2.5951401 
C     0.2814709    5.2399566   -4.0393769 
C     1.4903234    5.9051894   -3.4054913 
C     1.4604160    7.2968714   -3.2546820 
C     2.5036153    7.9911607   -2.6495411 
C     3.6032899    7.2775783   -2.1801383 
C     3.6731235    5.8867953   -2.3004030 
C     2.6198689    5.1991064   -2.9389263 
C     4.8506981    5.1743150   -1.6659531 
C     4.5380057    4.5012654   -0.3358843 
C     4.6891161    5.2871985    0.8127438 
C     4.4200440    4.7841881    2.0819442 
C     4.0093502    3.4597948    2.2091450 
C     3.8303951    2.6418783    1.0903776 
C     4.0936999    3.1699903   -0.1898219 
C     3.2773491    1.2472914    1.3391371 
O     3.9146774    2.3452800   -1.2671133 
O     2.7564463    3.8574571   -3.0973050 
O     0.5324786    2.4978523   -3.1292032 
O     1.5824134    1.1561676   -1.1185290 
H     3.5862115    0.9609728    2.3571107 
H     3.8114916    3.0444991    3.1998141 
H     5.0361546    6.3167820    0.7001918 
H     5.6163302    5.9392780   -1.4606027 
H     4.4311229    7.8046511   -1.7007599 
H     0.5936398    7.8428034   -3.6338203 
H    -0.3005912    6.0388999   -4.5255932 
H    -1.8199089    6.3544729   -2.8879164 
H    -3.0732015    3.0942814   -0.3864791 
H    -2.2997610    1.0033567   -0.7638261 
H    -2.1270840    1.0815575    1.4470899 
H     1.6771672    1.0943890    3.4461009 
H     1.8819863    3.4003369   -3.2984039 
H     3.7513320    2.9056037   -2.0760695 
H     2.5469221    1.4362462   -1.0908849 
H     0.7851964    1.7783249   -2.4834270 
H     4.5555619    5.4095983    2.9641903 
H    -0.8076207    1.0393863    3.5613039 
H    -3.3611091    5.4401107   -1.1591262 
H     2.4638093    9.0756933   -2.5523695 
F     3.8538963    0.2941530    0.4769045 
F     5.4470652    4.2664627   -2.5658052 
F     0.6786890    4.3671296   -5.0712822 
F    -0.9020125    0.3640751   -2.0627082 
C     1.1070607    5.5833533    0.2215089 
O     1.1277485    6.7337530    0.4381639 
O     1.0780630    4.4313791    0.0139743 
