59
Energy = -1966.537597564
C     1.0421617    1.0704253   -0.0131693 
C    -0.3581258    1.1008783    0.0644682 
C    -0.9636636    1.1434659    1.3215531 
C    -0.1900295    1.1617590    2.4812013 
C     1.1998461    1.1450851    2.3891352 
C     1.8353401    1.0904149    1.1446361 
C    -1.1963583    1.1505710   -1.1997109 
C    -1.4527323    2.5747054   -1.6631810 
C    -2.5587067    3.2792362   -1.1777352 
C    -2.8048045    4.5895512   -1.5814335 
C    -1.9310995    5.2200744   -2.4662264 
C    -0.8118042    4.5466368   -2.9588819 
C    -0.5834724    3.2230105   -2.5542472 
C     0.1792913    5.2528675   -3.8653978 
C     1.2759918    5.9512058   -3.0788723 
C     1.0852720    7.2622787   -2.6303547 
C     2.0699850    7.9167452   -1.8939232 
C     3.2575768    7.2565832   -1.5813673 
C     3.4723526    5.9432521   -2.0044396 
C     2.4765291    5.2993797   -2.7552355 
C     4.7302028    5.1969352   -1.5988866 
C     4.5586733    4.4745639   -0.2730577 
C     4.8224564    5.1456715    0.9255472 
C     4.6553690    4.5083954    2.1530056 
C     4.2033683    3.1902926    2.1952431 
C     3.9191263    2.4979498    1.0163564 
C     4.1024495    3.1477954   -0.2136021 
C     3.3526466    1.0907336    1.0662226 
O     3.8231493    2.4305854   -1.3636616 
O     2.7267777    4.0029647   -3.1685149 
O     0.5243489    2.5780877   -3.0770675 
O     1.6102211    1.0069685   -1.2743420 
H     3.6934937    0.5105249    0.1937407 
H     4.0742768    2.6800202    3.1495945 
H     5.1843139    6.1727530    0.8830010 
H     5.0256177    4.4877635   -2.3885413 
H     4.0364090    7.7602303   -1.0092124 
H     0.1589211    7.7747978   -2.8892271 
H     0.6157889    4.5399563   -4.5832902 
H    -2.1180307    6.2423880   -2.7946102 
H    -3.2434795    2.7746473   -0.4963507 
H    -0.7135674    0.5675264   -2.0005088 
H    -2.0518574    1.1496606    1.3819983 
H     1.8120174    1.1462438    3.2908923 
H     1.8583574    3.5016195   -3.2685591 
H     3.5415548    3.0582913   -2.0984065 
H     2.5235497    1.4283715   -1.2623462 
H     0.8485849    1.8749957   -2.4331771 
H     4.8767246    5.0404982    3.0783397 
H    -0.6717505    1.1869562    3.4589666 
H    -3.6809104    5.1202032   -1.2077843 
H     1.9118001    8.9427693   -1.5613492 
F     3.8659312    0.4333146    2.1977864 
F     5.7880411    6.1146806   -1.4808101 
F    -0.5056049    6.2111094   -4.6327843 
F    -2.4312736    0.5260197   -0.9521869 
C     1.1697445    5.2688695    0.7325420 
O     1.0705989    4.3359274    0.0313651 
O     1.2591576    6.1985087    1.4373179 
