59
Energy = -1966.559832291
C     0.9339545    1.2823355    0.0901847 
C    -0.4705052    1.3142832    0.0533210 
C    -1.1711539    1.4525208    1.2552595 
C    -0.4705574    1.5651087    2.4484724 
C     0.9161436    1.5414267    2.4876968 
C     1.6427588    1.3923410    1.3002240 
C    -1.2242599    1.2672076   -1.2630868 
C    -1.4348618    2.6451001   -1.8668238 
C    -2.5776395    3.3794180   -1.5296153 
C    -2.7604146    4.6491372   -2.0575525 
C    -1.8343812    5.2266057   -2.9151621 
C    -0.6791066    4.5193863   -3.2598358 
C    -0.4944696    3.2305478   -2.7322457 
C     0.3752901    5.1685360   -4.1375994 
C     1.4239287    5.9231138   -3.3384731 
C     1.2190673    7.2729612   -3.0314919 
C     2.1624570    7.9597809   -2.2814558 
C     3.3158335    7.3452533   -1.8137701 
C     3.5403775    5.9948964   -2.0973062 
C     2.5895836    5.2983359   -2.8616603 
C     4.7614536    5.2927501   -1.5320590 
C     4.5017928    4.6638456   -0.1740380 
C     4.7123069    5.4164060    0.9874506 
C     4.4538195    4.8550459    2.2297035 
C     3.9798500    3.5570040    2.3620100 
C     3.7500050    2.7866071    1.2178939 
C     4.0181316    3.3499520   -0.0417508 
C     3.1613158    1.3934269    1.3463113 
O     3.8045827    2.5563824   -1.1524083 
O     2.8516277    3.9711067   -3.1475028 
O     0.6449727    2.5447757   -3.1116199 
O     1.5991344    1.1215983   -1.1105082 
H     3.5689437    0.7342360    0.5661896 
H     3.4760941    0.9709013    2.3104555 
H     3.7837756    3.1539974    3.3561954 
H     5.0876448    6.4387158    0.9276120 
H     5.5664053    6.0321113   -1.4196146 
H     5.1273367    4.5354453   -2.2407332 
H     4.0338983    7.9205484   -1.2280927 
H     0.3288583    7.7952481   -3.3840779 
H     0.8526518    4.4142541   -4.7801925 
H    -0.1231111    5.8816659   -4.8087601 
H    -2.0145617    6.2279670   -3.3079976 
H    -3.3329579    2.9602078   -0.8637614 
H    -0.7047251    0.6106072   -1.9761266 
H    -2.2100083    0.8165714   -1.0827564 
H    -2.2614240    1.4777997    1.2663631 
H     1.4280079    1.6324198    3.4463104 
H     1.9846051    3.4722909   -3.2723125 
H     3.5774722    3.1358565   -1.9464708 
H     2.5072096    1.5551270   -1.0559035 
H     0.9089436    1.8970681   -2.3873882 
F     4.6757066    5.5936272    3.3467967 
F    -1.1617053    1.6953642    3.6096303 
F    -3.8819873    5.3438119   -1.7322790 
F     1.9560157    9.2738604   -2.0043545 
C     0.8334295    4.8873200    1.0262830 
O     0.9322874    4.5977430   -0.1044325 
O     0.7290264    5.1843060    2.1533665 
