59
Energy = -11862.46599925
C     1.0089250    1.2146700    0.0842529 
C    -0.3947095    1.2864220    0.1506403 
C    -0.9970973    1.4483866    1.3990026 
C    -0.2267284    1.5365464    2.5568781 
C     1.1606389    1.4534631    2.4752688 
C     1.8016381    1.2780612    1.2456861 
C    -1.1802825    1.3017623   -1.1442224 
C    -1.4534091    2.7119768   -1.6279046 
C    -2.5080686    3.4777457   -1.1219878 
C    -2.7051384    4.7922543   -1.5359168 
C    -1.8402096    5.3637244   -2.4672057 
C    -0.7673966    4.6372214   -2.9863945 
C    -0.5755506    3.3127687   -2.5500535 
C     0.2677681    5.2535592   -3.9045070 
C     1.3390389    5.9975457   -3.1320696 
C     1.1416577    7.2984068   -2.6592154 
C     2.1154366    7.9423935   -1.9004582 
C     3.3078538    7.2867136   -1.6009129 
C     3.5378832    5.9826182   -2.0421042 
C     2.5390775    5.3411315   -2.7977993 
C     4.7636760    5.1905158   -1.6368075 
C     4.6048393    4.5584673   -0.2683826 
C     4.8398365    5.2707336    0.9111234 
C     4.6299691    4.6859857    2.1570530 
C     4.1739529    3.3718811    2.2395828 
C     3.9156221    2.6310640    1.0856174 
C     4.1247410    3.2392910   -0.1657520 
C     3.3119777    1.2423724    1.1232439 
O     3.8300422    2.4933759   -1.2934057 
O     2.7729461    4.0341069   -3.1854098 
O     0.5180735    2.6297819   -3.0495455 
O     1.5818237    1.0911583   -1.1691667 
H     3.6056582    0.6850241    0.2284370 
H     4.0298897    2.8987484    3.2115039 
H     5.2247969    6.2886087    0.8406140 
H     4.9754251    4.4223096   -2.3867985 
H     4.0851940    7.7924233   -1.0271289 
H     0.2182306    7.8165356   -2.9197331 
H     0.7203867    4.4778718   -4.5296373 
H    -2.0004858    6.3854347   -2.8128147 
H    -3.1976601    3.0162541   -0.4144679 
H    -0.6436207    0.7358769   -1.9118302 
H    -2.0854245    1.4870131    1.4571020 
H     1.7667234    1.4918752    3.3810296 
H     1.9000670    3.5465563   -3.2757156 
H     3.5704679    3.1015441   -2.0482556 
H     2.4985254    1.5013966   -1.1653476 
H     0.8269242    1.9456879   -2.3814845 
H     4.8350223    5.2511053    3.0664811 
H    -0.7101512    1.6562326    3.5266335 
H    -3.5397703    5.3704099   -1.1393940 
H     1.9489118    8.9612406   -1.5506627 
Br    4.1279059    0.1326908    2.5574682 
Br    6.4103906    6.2999209   -1.7388524 
Br   -0.5757224    6.4187444   -5.2764639 
Br   -2.8616359    0.2521802   -0.9890559 
C     0.5096926    5.3724589    0.3893328 
O     1.1170928    4.4590797   -0.0213697 
O    -0.0943145    6.2824540    0.8087024 
