63
Energy = -1870.474199998
C     1.1009350    1.0357428    0.0595095 
C    -0.2976879    0.9251519    0.0274918 
C    -0.9892999    0.8054593    1.2347038 
C    -0.3031865    0.8075048    2.4485841 
C     1.0829538    0.9470629    2.4653778 
C     1.8058058    1.0615239    1.2738768 
C    -1.0396061    0.9954108   -1.2972643 
C    -1.2561280    2.4456175   -1.7363568 
C    -2.3490503    3.1632719   -1.2365103 
C    -2.5920439    4.4751524   -1.6377489 
C    -1.7348269    5.0908970   -2.5486418 
C    -0.6251615    4.4120435   -3.0602112 
C    -0.3905351    3.0928752   -2.6361603 
C     0.3250825    5.1159529   -4.0295131 
C     1.3570375    5.9432045   -3.2774343 
C     1.1388950    7.3041564   -3.0398274 
C     2.0644182    8.0625110   -2.3262571 
C     3.2137041    7.4604023   -1.8153936 
C     3.4554305    6.1015176   -2.0251668 
C     2.5288617    5.3574764   -2.7721916 
C     4.6545718    5.4125930   -1.3973071 
C     4.2615103    4.7415930   -0.0794739 
C     4.2301590    5.4962632    1.0981565 
C     3.9216082    4.9047433    2.3216504 
C     3.6375590    3.5408774    2.3803539 
C     3.6455766    2.7579517    1.2228575 
C     3.9452691    3.3742548   -0.0030090 
C     3.3118845    1.2680181    1.3017523 
O     3.9473332    2.5793548   -1.1388623 
O     2.8325123    4.0271833   -3.0148960 
O     0.7218306    2.4441526   -3.1448217 
O     1.7602563    1.0889895   -1.1584633 
H     3.7613802    0.7562065    0.4316774 
H     3.4038230    3.0604410    3.3312468 
H     4.4718000    6.5582664    1.0392473 
H     5.0280480    4.6411399   -2.0947769 
H     3.9477537    8.0391376   -1.2557065 
H     0.2406079    7.7635935   -3.4507673 
H     0.8494815    4.3512663   -4.6309826 
H    -1.9115634    6.1181218   -2.8707813 
H    -3.0152602    2.6678613   -0.5287260 
H    -0.4408944    0.4746260   -2.0665314 
H    -2.0727058    0.6952578    1.2048995 
H     1.6328888    0.9442825    3.4059073 
H     2.0052042    3.4904117   -3.2047275 
H     3.6682643    3.1539367   -1.9187732 
H     2.6566582    1.5319706   -1.0723311 
H     1.0519340    1.7947412   -2.4486382 
H     3.9017511    5.5072262    3.2306013 
H    -0.8516752    0.7017888    3.3853014 
H    -3.4474524    5.0200486   -1.2368100 
H     1.8885813    9.1268088   -2.1657287 
O     3.8223238    0.6865080    2.5029784 
H     4.7716681    0.9022994    2.5320593 
O     5.6764592    6.3894627   -1.1888532 
H     6.3957318    5.9392944   -0.7107869 
O    -0.3858741    5.9951136   -4.9067550 
H    -1.1368350    5.4887267   -5.2624218 
O    -2.2884211    0.3153223   -1.1369754 
H    -2.8139208    0.5015901   -1.9344158 
C     7.1091226    2.8602735    0.8524969 
O     6.8213692    1.9003865    1.4580558 
O     7.4192532    3.8126602    0.2465314 
