63
Energy = -3161.756023947
C     0.9368666    0.8502976    0.0757612 
C    -0.4275205    1.1677848   -0.0239209 
C    -1.0542549    1.7097476    1.1041227 
C    -0.3423114    1.9518359    2.2789076 
C     1.0262251    1.6956815    2.3238755 
C     1.6917536    1.1483832    1.2214316 
C    -1.2073524    1.0065150   -1.3159211 
C    -1.5722431    2.3502602   -1.9130415 
C    -2.8583170    2.8898564   -1.7957145 
C    -3.1558316    4.1493010   -2.3175907 
C    -2.1669831    4.8947210   -2.9605647 
C    -0.8686809    4.3915686   -3.1014490 
C    -0.5981879    3.1185321   -2.5725532 
C     0.2329427    5.1840199   -3.7760140 
C     1.2025084    5.7840626   -2.7729591 
C     0.7541805    6.8228448   -1.9474108 
C     1.5560787    7.3474302   -0.9351932 
C     2.8186763    6.8049654   -0.7097684 
C     3.3138334    5.7765824   -1.5173019 
C     2.5114536    5.3081371   -2.5744701 
C     4.6641935    5.1583373   -1.2054590 
C     4.6381338    4.3150529    0.0548461 
C     5.1941196    4.7930661    1.2479236 
C     5.1361620    4.0410524    2.4208586 
C     4.5054473    2.7970483    2.4206992 
C     3.9333491    2.2813851    1.2521485 
C     4.0239699    3.0531459    0.0828085 
C     3.1971153    0.9563744    1.2599844 
O     3.3893511    2.5949099   -1.0705830 
O     3.0591675    4.2812695   -3.3423499 
O     0.7020826    2.6475508   -2.6279711 
O     1.6112083    0.2882710   -1.0135491 
H     3.5142578    0.3426471    0.4062686 
H     3.4724748    0.4143827    2.1769192 
H     4.4546752    2.2090992    3.3399169 
H     5.6838664    5.7694775    1.2483534 
H     5.4022842    5.9614866   -1.0623084 
H     4.9971572    4.5587526   -2.0618550 
H     3.4350786    7.1734228    0.1131305 
H    -0.2592327    7.2045688   -2.0905518 
H     0.7644564    4.5390932   -4.4837468 
H    -0.2259478    5.9946575   -4.3613065 
H    -2.4023305    5.8813428   -3.3657212 
H    -3.6339316    2.3104250   -1.2900051 
H    -0.6207540    0.4320637   -2.0441337 
H    -2.1312766    0.4437057   -1.1175814 
H    -2.1142015    1.9665457    1.0470223 
H     1.5997110    1.9387348    3.2209908 
H    -0.8516016    2.3666417    3.1500518 
H    -4.1640974    4.5540122   -2.2192773 
H     1.1858916    8.1606277   -0.3092273 
H     5.5835453    4.4259433    3.3384214 
S     3.3589502    4.5872005   -4.9885462 
H     2.4703152    3.6527718   -5.4428625 
S     4.2849428    1.5509268   -2.0544569 
H     4.8459603    2.4976671   -2.8596256 
S     1.3292238   -1.3599857   -1.2761647 
H     2.1470597   -1.8468535   -0.2980863 
S     1.0485354    1.7044208   -4.0280504 
H     2.2745808    1.3527332   -3.5318684 
C    -0.0677854    4.7493668    0.4531363 
O    -1.1410199    5.2052105    0.5809913 
O     1.0058286    4.3011413    0.3413622 
