67
Energy = -1791.018251763
C     0.9270006    0.9130436    0.2331915 
C    -0.4790719    0.8077708    0.2909153 
C    -1.0807119    0.5435690    1.5231715 
C    -0.3170141    0.4070045    2.6864934 
C     1.0655745    0.6036787    2.6270511 
C     1.7004454    0.8862261    1.4160852 
C    -1.2715238    1.1105880   -0.9712782 
C    -1.0330646    2.5797339   -1.3540374 
C    -1.1689611    3.5394200   -0.3487290 
C    -0.8172503    4.8670985   -0.5667604 
C    -0.2146829    5.2167273   -1.7714410 
C    -0.0543351    4.2916530   -2.8089034 
C    -0.5890842    2.9924914   -2.6329683 
C     0.7472878    4.7088307   -4.0570142 
C     1.8296892    5.6950955   -3.6463469 
C     1.7102488    7.0722037   -3.8393854 
C     2.6187006    7.9619305   -3.2591638 
C     3.6309526    7.4655049   -2.4330819 
C     3.7942653    6.0926957   -2.2315461 
C     2.9264993    5.2030527   -2.8993651 
C     4.7865081    5.5238763   -1.2299038 
C     4.0069570    4.8347474   -0.0989519 
C     3.0200189    5.5869377    0.5408954 
C     2.1703622    5.0121134    1.4795146 
C     2.2469882    3.6418148    1.7085944 
C     3.2165483    2.8427525    1.0923823 
C     4.1744684    3.4762944    0.2633120 
C     3.1557875    1.3194262    1.3239326 
O     5.2539337    2.7708526   -0.1860951 
O     3.1298078    3.8718042   -2.7672966 
O    -0.6609966    2.1436102   -3.7002750 
O     1.5103804    1.0910870   -0.9742339 
H     3.6622710    1.0837687    2.2800961 
H     1.5126990    3.1675280    2.3600064 
H     2.8965014    6.6363987    0.2641098 
H     5.3461763    6.3659120   -0.7916700 
H     4.3021949    8.1576138   -1.9176600 
H     0.8680633    7.4520093   -4.4237626 
H     0.0671165    5.1956226   -4.7820533 
H     0.1767241    6.2258417   -1.9001724 
H    -1.5193796    3.2241350    0.6362410 
H    -2.3430075    0.9728139   -0.7516941 
H    -2.1696731    0.4601182    1.5726187 
H     1.6633674    0.5720417    3.5417877 
H     2.5035692    3.4515704   -3.4863424 
H     5.7371134    3.4007077   -0.8431152 
H     2.5144321    0.9162183   -0.8063560 
H    -0.8921332    1.2236021   -3.2990506 
H     1.4104265    5.6118296    1.9805100 
H    -0.8004443    0.1857253    3.6384146 
H    -0.9385365    5.6086835    0.2227281 
H     2.5152061    9.0356658   -3.4177139 
N     3.7665434    0.5799030    0.1896912 
H     3.8616390   -0.4070907    0.4319700 
H     4.6799257    0.9833087   -0.0396196 
N     5.7913544    4.6243310   -1.8652454 
H     5.3639851    4.1661936   -2.6745375 
H     6.5879150    5.1653251   -2.2002131 
N     1.4257193    3.5299396   -4.6595825 
H     0.7618229    2.7516010   -4.7414183 
H     1.7998847    3.7774135   -5.5765186 
N    -0.9361059    0.1792299   -2.0868433 
H     0.0677022   -0.0246525   -2.0288277 
H    -1.4450334   -0.6971445   -1.9727356 
C     4.5951978    1.3464906   -3.4887264 
O     3.6081954    0.7363192   -3.3421566 
O     5.5946033    1.9368343   -3.6537518 
