67
Energy = -1790.747643139
C     0.6130840    1.0061574    0.1196761 
C    -0.6427700    1.6383232    0.0313944 
C    -0.9095874    2.7246859    0.8708610 
C     0.0624923    3.2054241    1.7422983 
C     1.3278925    2.6241716    1.7494858 
C     1.6333139    1.5230437    0.9402274 
C    -1.6567683    1.2540935   -1.0340881 
C    -1.9428091    2.4467607   -1.9238093 
C    -3.2009274    3.0565002   -1.9825186 
C    -3.3924185    4.2247124   -2.7221547 
C    -2.3079062    4.8393952   -3.3512859 
C    -1.0253994    4.2785398   -3.2980190 
C    -0.8875290    3.0415681   -2.6392659 
C     0.1897929    5.0588310   -3.7542482 
C     1.0404969    5.4553645   -2.5532160 
C     0.4029172    5.9492269   -1.4086351 
C     1.1204457    6.2942797   -0.2661708 
C     2.4963664    6.0916694   -0.2314835 
C     3.1723273    5.5837062   -1.3455518 
C     2.4418527    5.3274836   -2.5225269 
C     4.6385764    5.2033417   -1.2173074 
C     4.8121064    4.2010397   -0.0943369 
C     5.5376223    4.4905065    1.0666598 
C     5.5735777    3.5849642    2.1283386 
C     4.8207065    2.4103614    2.0709811 
C     4.0591651    2.0914986    0.9393476 
C     4.1333977    2.9703364   -0.1584619 
C     3.0503904    0.9620811    0.9678615 
O     3.4450155    2.7143888   -1.3327151 
O     3.1903012    5.0380568   -3.6561408 
O     0.3355945    2.3953159   -2.5720701 
O     0.7444818   -0.1923218   -0.5698336 
H     3.1821252    0.2653977    0.1321302 
H     3.2006737    0.3823665    1.8927923 
H     4.7834949    1.7431440    2.9353719 
H     6.0752128    5.4390071    1.1349850 
H     5.2525236    6.0911510   -1.0009114 
H     4.9870222    4.7926650   -2.1738492 
H     3.0572867    6.2835056    0.6859495 
H    -0.6841128    6.0485099   -1.4161014 
H     0.8040438    4.4937274   -4.4644969 
H    -0.1532190    5.9646315   -4.2797209 
H    -2.4428721    5.7970507   -3.8596895 
H    -4.0347762    2.6083356   -1.4374531 
H    -1.2632583    0.4099758   -1.6152383 
H    -2.5983966    0.9199772   -0.5715749 
H    -1.8789307    3.2230705    0.7995635 
H     2.1110159    3.0392379    2.3866716 
H    -0.1515646    4.0564960    2.3903880 
H    -4.3820166    4.6812614   -2.7744633 
H     0.5995439    6.6863513    0.6085847 
H     6.1569458    3.8142256    3.0214211 
N     2.9722363    3.6805076   -4.1755982 
H     3.5535679    3.0631914   -3.5798819 
H     3.4546010    3.7410932   -5.0786940 
N     4.0301497    1.6162192   -2.1076659 
H     4.9685873    1.4672895   -1.7134388 
H     3.4330451    0.8041455   -1.8456455 
N     1.7354984   -0.1428835   -1.6541141 
H     1.2495811    0.3123221   -2.4482187 
H     1.8054204   -1.1372718   -1.8953488 
N     0.7417420    1.8123803   -3.8543418 
H     1.3959605    2.5269069   -4.2363788 
H    -0.1057290    1.8066385   -4.4374371 
C     3.3162349    0.1449881   -4.9045543 
O     3.3898710    1.0535539   -5.6397128 
O     3.2574158   -0.7888321   -4.2004116 
