67
Energy = -1791.011403826
C     0.9254502    1.0489837    0.0014400 
C    -0.4763997    1.0650351    0.1004102 
C    -1.0548434    1.0859804    1.3722779 
C    -0.2600892    1.0954069    2.5177140 
C     1.1280190    1.0849976    2.3997324 
C     1.7449819    1.0520658    1.1441689 
C    -1.3444639    1.1238568   -1.1543933 
C    -1.5801870    2.5753474   -1.5730072 
C    -2.6527741    3.2984778   -1.0405007 
C    -2.8864063    4.6186880   -1.4200919 
C    -2.0408403    5.2388602   -2.3389009 
C    -0.9519378    4.5535567   -2.8842534 
C    -0.7305656    3.2245940   -2.4858559 
C    -0.0001465    5.2478862   -3.8567916 
C     1.1182094    5.9558497   -3.0928601 
C     0.9534364    7.2766326   -2.6613925 
C     1.9569609    7.9290074   -1.9484317 
C     3.1415387    7.2593231   -1.6451174 
C     3.3398972    5.9365003   -2.0498545 
C     2.3186534    5.2970431   -2.7729418 
C     4.6122747    5.1835137   -1.6642384 
C     4.4330862    4.4660666   -0.3253082 
C     4.7059925    5.1348802    0.8730543 
C     4.5480431    4.4987055    2.1024015 
C     4.1036737    3.1781849    2.1494299 
C     3.8096683    2.4797598    0.9752589 
C     3.9737640    3.1385703   -0.2553306 
C     3.2702118    1.0510083    1.0335956 
O     3.6873915    2.4222715   -1.4072315 
O     2.5471255    3.9924976   -3.1818827 
O     0.3389154    2.5526366   -3.0628320 
O     1.4751517    1.0069224   -1.2702017 
H     3.5410830    0.5507932    0.0857848 
H     3.9755174    2.6621731    3.1014839 
H     5.0612552    6.1642745    0.8164040 
H     4.7959603    4.4160492   -2.4382569 
H     3.9375761    7.7511485   -1.0852252 
H     0.0213531    7.7849562   -2.9104662 
H     0.4589067    4.4681242   -4.4911310 
H    -2.2112109    6.2683187   -2.6553699 
H    -3.3122278    2.7917373   -0.3353353 
H    -0.7943292    0.6214424   -1.9704229 
H    -2.1430223    1.0977540    1.4429803 
H     1.7658671    1.0879274    3.2841807 
H     1.6727018    3.5047717   -3.2768699 
H     3.3919944    3.0572370   -2.1307878 
H     2.3902312    1.4278061   -1.2636383 
H     0.6785139    1.8548567   -2.4188790 
H     4.7682642    5.0344721    3.0267844 
H    -0.7240157    1.1166952    3.5048015 
H    -3.7299575    5.1666536   -0.9978603 
H     1.8133974    8.9602245   -1.6228345 
N     3.8462448    0.3563410    2.1953844 
H     3.5131855   -0.6098729    2.2109957 
H     4.8637022    0.3300756    2.1018446 
N     5.7342142    6.1298897   -1.5643323 
H     6.5882432    5.6179730   -1.3338128 
H     5.8790815    6.5784286   -2.4713383 
N    -0.7483878    6.2236434   -4.6633530 
H    -1.4498433    5.7248380   -5.2155704 
H    -0.1089424    6.6756843   -5.3205335 
N    -2.6386141    0.4736860   -0.8997124 
H    -3.1819724    0.4701779   -1.7659798 
H    -2.4770924   -0.5012496   -0.6378800 
C    -2.1526763    2.0091132   -5.0757855 
O    -1.8415117    2.9424917   -5.7106264 
O    -2.4731915    1.0670532   -4.4586468 
