67
Energy = -1791.058273485
C     0.9855761    1.1550602    0.0770862 
C    -0.4159794    1.2036981    0.1184331 
C    -1.0519573    1.3071192    1.3568510 
C    -0.3243752    1.3765511    2.5531007 
C     1.0740077    1.3356164    2.4782501 
C     1.7441113    1.2191941    1.2571432 
C    -1.2347475    1.2126039   -1.1587753 
C    -1.4284758    2.6128286   -1.7144987 
C    -2.5028823    3.3851392   -1.2635507 
C    -2.7088150    4.6975986   -1.7079064 
C    -1.8033492    5.2278965   -2.6377203 
C    -0.7105525    4.4914329   -3.0983891 
C    -0.5268838    3.1812858   -2.6291420 
C     0.3031512    5.1443773   -4.0196189 
C     1.4038188    5.8499766   -3.2467731 
C     1.2178192    7.1757352   -2.8453137 
C     2.1742014    7.8583989   -2.0817840 
C     3.3472595    7.1756493   -1.7321146 
C     3.5630028    5.8480587   -2.1070608 
C     2.5819380    5.1884776   -2.8632351 
C     4.8060734    5.1233479   -1.6242216 
C     4.6040018    4.4634225   -0.2717500 
C     4.8895841    5.1772664    0.8953925 
C     4.6874784    4.6246390    2.1669434 
C     4.1770926    3.3215670    2.2470902 
C     3.8721668    2.5822198    1.1027942 
C     4.0930794    3.1609961   -0.1561653 
C     3.2626927    1.1985211    1.2349419 
O     3.8183881    2.3953224   -1.2795301 
O     2.8140266    3.8685931   -3.2219948 
O     0.5670455    2.4711091   -3.0998588 
O     1.5918116    1.0131982   -1.1616236 
H     3.6232018    0.5461747    0.4257989 
H     3.6135197    0.7543185    2.1774775 
H     4.0045304    2.8712177    3.2285144 
H     5.2872463    6.1922472    0.8083432 
H     5.6216113    5.8549205   -1.5333250 
H     5.1289611    4.3818732   -2.3695318 
H     4.1110814    7.6879762   -1.1408181 
H     0.2991341    7.6910206   -3.1379106 
H     0.7300062    4.4016322   -4.7087442 
H    -0.2161703    5.8890876   -4.6395392 
H    -1.9454335    6.2483439   -3.0032638 
H    -3.2010218    2.9466667   -0.5453066 
H    -0.7717015    0.5612464   -1.9143028 
H    -2.2255327    0.7888079   -0.9409766 
H    -2.1444884    1.3421266    1.3889975 
H     1.6622772    1.3895045    3.3985326 
H     1.9340227    3.3861675   -3.3068514 
H     3.5651969    2.9959505   -2.0477728 
H     2.5048824    1.4410176   -1.1411103 
H     0.8650793    1.8173923   -2.3925128 
N     4.9263565    5.3781796    3.3266511 
H     5.1194815    4.8176548    4.1525160 
H     5.6267947    6.1060275    3.2112868 
N    -0.9771555    1.5492108    3.7837044 
H    -1.9233746    1.1780039    3.8063180 
H    -0.4422715    1.2248560    4.5851887 
N    -3.8241338    5.4367049   -1.2891792 
H    -3.6851715    6.4435796   -1.3191018 
H    -4.1919386    5.1514189   -0.3852431 
N     1.9917310    9.2050943   -1.7378124 
H     2.5120657    9.4947406   -0.9137286 
H     1.0163920    9.4828048   -1.6637569 
C     0.3371637    5.5734778    0.1381868 
O    -0.2932169    6.5464398    0.3188480 
O     0.9685633    4.6024425   -0.0188361 
