95
Energy = -2557.271619989
H    -6.9561197   -1.4342529    7.5677761 
H    -6.9284884   -1.1716389    5.8214188 
C    -6.4682897   -0.8614252    6.7653799 
H   -10.3753855   -1.5807635    2.5255390 
H    -8.0433627   -0.7470486    2.9161706 
C   -10.1707153   -0.8727757    3.3305008 
C    -8.8776364   -0.4089552    3.5302406 
H   -12.2222299   -0.7855381    4.0551742 
C   -11.1963286   -0.4394157    4.1791954 
H    -6.9394047   -3.9464318    1.1958458 
C    -6.4636904   -3.2164243    1.8505324 
C    -5.9366319   -2.0181811    1.3519647 
H    -5.9821161   -1.7885032    0.2856091 
H    -6.7180730   -4.3940322    3.6498645 
C    -6.3395495   -3.4641967    3.2153021 
N    -5.7664373   -2.6094470    4.0789793 
C    -5.3368980   -1.1235982    2.2273269 
C    -5.2972450   -1.4659667    3.5880618 
H    -4.9623644   -1.8750878    8.8037197 
C    -4.9924660   -1.2077755    6.7579724 
O    -4.7520128   -0.5410113    4.4319889 
C    -4.3598982   -1.6837282    7.9130808 
C    -4.1923999   -1.0072150    5.6267032 
C    -1.9588590   -0.7628264    4.4399912 
H    -1.0195102   -1.3353920    4.4485813 
H    -2.4721910   -0.9832450    3.4971239 
C    -2.8016220   -1.1815443    5.6315727 
C    -2.2133579   -1.6650737    6.8065932 
H    -1.1353263   -1.8383043    6.8296766 
C    -2.9874450   -1.9297641    7.9355468 
H    -2.5181715   -2.3199941    8.8399391 
C   -10.8651214    0.4430958    5.2034062 
H   -11.6285199    0.8024246    5.8997665 
H    -6.0931062    0.4781839    9.0830333 
C    -8.6676770    0.4930105    4.5876671 
N    -9.6224565    0.9090715    5.4114559 
C    -6.6757415    0.6218827    7.0179118 
H    -4.8879083   -0.1895676    1.9027727 
H    -7.6917426    1.0445770   -0.0661184 
O    -7.3931641    0.9683479    4.7493901 
C    -6.4002204    1.1532266    8.2818436 
H    -6.8818936    1.1041389    2.3237519 
C    -7.0711623    1.5087106    6.0047001 
C    -6.4868468    2.5227710    8.5190734 
H    -6.2798327    2.9231359    9.5126407 
C    -7.0722835    1.8690298    0.2923119 
C    -6.0815413    4.6702077    4.7607106 
C    -5.8426692    2.9656263    2.0232679 
C    -7.3441222    3.8815824    5.0591643 
N    -5.5249983    3.9943505    1.2429812 
C    -6.6311203    1.8813582    1.6081689 
H    -7.6937760    3.3459625    4.1691448 
H    -8.1388885    4.5802661    5.3594847 
C    -7.0911360    2.8974450    6.1903593 
C    -5.9642800    3.9658955   -0.0264223 
C    -6.7265416    2.9280881   -0.5567754 
H    -7.0555986    2.9572459   -1.5953776 
H    -6.5935323    6.3473462    6.0130449 
O    -5.3776542    2.9236023    3.3074331 
C    -6.8036973    3.3845538    7.4716235 
H    -6.8167182    4.4625191    7.6419611 
C    -5.8258873    5.9013761    5.3773203 
H    -5.6841256    4.8241803   -0.6440702 
C    -5.0855605    4.1436410    3.9256786 
C    -4.6104877    6.5566917    5.1859623 
H    -4.4281311    7.5189591    5.6662161 
O    -3.8274601    2.1580919    6.4957371 
H    -3.1563807    1.0733014   -1.9593492 
H    -4.2387525    1.2512629    0.2949572 
C    -2.5467243    1.0796085   -1.0541685 
C    -3.5760654    3.1494954    7.0607359 
O    -3.3181208    4.1372807    7.6385229 
H    -0.6360642    0.9551085   -2.0911970 
C    -3.1575784    1.1667379    0.1893182 
C    -1.1502253    1.0197427   -1.1324963 
H     0.6645703    1.0253235    0.0489692 
C    -0.4288805    1.0587085    0.0573638 
N    -0.9990361    1.1375490    1.2711670 
C    -2.3252549    1.1826794    1.3219218 
O    -2.9444860    1.2364088    2.5427174 
C    -2.1666585    1.6653519    3.6299704 
C    -2.0012603    3.0468978    3.8157261 
C    -1.6387491    0.7215069    4.5207061 
C    -1.1870684    3.4726183    4.8707197 
C    -2.7262384    4.0760884    2.9656485 
C    -0.8318493    1.1939537    5.5627934 
H    -1.0435520    4.5431245    5.0303209 
C    -0.5823156    2.5535502    5.7260571 
H    -3.1392400    3.6225678    2.0586304 
H    -2.0102576    4.8472313    2.6456945 
C    -3.8328362    4.7466034    3.7552208 
H    -0.4068517    0.4762444    6.2666517 
H     0.0602865    2.9002351    6.5367332 
C    -3.6195492    5.9727166    4.3979076 
H    -2.6604429    6.4777904    4.2658754 
