95
Energy = -2557.300567378
O     0.2061888    1.0811399    0.1950682 
C     1.0141045   -2.2884599    3.2021401 
H     0.0117132   -2.0718101    2.8336264 
H     0.5460407   -4.2979716    3.8359404 
H     1.1937130    1.2222013    0.3243688 
C    -0.4023562    0.9985576    1.4379692 
C    -1.7352285    1.4421621    1.5447512 
C    -1.6606902    0.9262752    3.9162051 
H    -2.1489685    0.9122526    4.8913758 
C     0.2982997    0.4884658    2.5453848 
C    -0.3492623    0.4793668    3.7862795 
C    -2.3485721    1.4009203    2.7992935 
H    -1.8887924    1.6573072   -0.5635566 
H    -0.2067538    2.4863410   -0.6269051 
H    -6.7609734    1.5588986    1.6103694 
N    -4.7880803    1.7812892    1.0372258 
C    -6.0352960    1.3433994    0.8201307 
C    -2.4279537    2.0338192    0.3152828 
H     0.1880018    0.1049751    4.6595009 
O    -0.2660659    3.4021279   -1.0305022 
C    -3.8533713    1.5456299    0.1003703 
H    -3.3759907    1.7530951    2.8858968 
C    -6.4249343    0.6535947   -0.3273531 
H    -7.4561391    0.3210465   -0.4502385 
C    -5.4581509    0.4074731   -1.3013369 
C    -4.1587273    0.8583076   -1.0842843 
H    -5.7112823   -0.1284036   -2.2177227 
H    -3.3782947    0.6820641   -1.8264661 
H     1.9421648   -0.2041333    1.3590756 
O     5.9401101   -0.4504486    4.7891282 
C     5.8971868   -0.1334886    3.6619880 
O     5.9220349    0.1867189    2.5356591 
C     1.3142962   -3.5261363    3.7636549 
O     2.7309093    1.8286935    0.5263881 
C     1.7468166    0.0212302    2.4206395 
C     2.0181716   -1.3109240    3.1190160 
C     2.6782456    1.1591305    2.8154716 
N     3.2672525   -1.5426451    3.5524188 
C     3.0394263    1.3942471    4.1437099 
C     3.1214543    2.0628976    1.8345564 
C     3.5425574   -2.7349687    4.1009222 
H     2.7068681    0.7017145    4.9166813 
C     3.8314216    2.4889668    4.4880668 
C     3.9433882    3.1586194    2.1528972 
H     4.5685501   -2.8697578    4.4564072 
C     2.6068358   -3.7589459    4.2339418 
H     4.1049358    2.6587752    5.5299567 
H     2.8860999   -4.7090546    4.6904493 
C     4.2779506    3.3592020    3.4959285 
H     2.7037780    2.6982920    0.0204064 
H     6.5018942    2.5563823    1.8602097 
C    -2.2873892    3.5596872    0.3137681 
H    -4.0224116    3.9187364    1.5212607 
C    -1.1984465    4.1658525   -0.3418804 
C    -3.1842948    4.3832692    1.0017886 
C     0.0079070    8.6093051   -3.8924024 
C     0.2184201    7.4406110   -3.1654156 
H     0.1863651    8.6302207   -4.9688538 
H     0.5649199    6.5325632   -3.6616294 
C    -1.0122769    5.5610400   -0.3348772 
C    -3.0155932    5.7656565    1.0182628 
H    -3.7257618    6.3934440    1.5582667 
C    -1.9360662    6.3486937    0.3567107 
H    -0.6114231   10.6873009   -3.7430069 
C    -0.4326913    9.7478237   -3.2190162 
C    -0.0146253    7.4343048   -1.7816506 
H     0.5396173    5.4339841   -1.7793863 
H    -1.7886336    7.4282992    0.3725917 
C     0.2316328    6.1483787   -1.0051372 
N    -0.4397208    8.5339770   -1.1358003 
C    -0.6403644    9.6534377   -1.8434060 
H     0.7328439    8.1102116    0.8458375 
H    -0.9861192   10.5219408   -1.2743919 
H     8.9215718    3.1798719    1.9273801 
C     6.8237976    3.5645290    1.5985839 
C     8.1697964    3.9149613    1.6341632 
H     4.3788406    3.6064314    0.1077452 
C     4.4072325    4.1352175    1.0747736 
H     1.3195015    3.9353162   -0.9640519 
C     8.5396908    5.2157821    1.2875624 
H     9.5821050    5.5361982    1.3054473 
C     5.8778619    4.5296693    1.2148567 
O     2.2820787    4.1162104   -0.7479147 
C     7.5320546    6.1002024    0.9073382 
N     6.2319112    5.7739618    0.8658922 
H     7.7743072    7.1274520    0.6170768 
H     4.9098014    4.2085703    3.7610471 
C     3.4248361    5.2953017    0.9849519 
C     2.3536747    5.2323877    0.0787768 
C     1.4849417    7.3229266    0.8927908 
C     1.3844666    6.2520220   -0.0002894 
H     2.5946198    8.2379951    2.4989449 
H     4.3181036    6.4520868    2.5610430 
C     3.4936969    6.3886682    1.8515843 
C     2.5302235    7.3928169    1.8124500 
