111
Energy = -3015.126893355
H    -5.2409264   -1.2004068   -4.2477304 
C    -4.9251825   -0.7713839   -3.2970864 
O     0.5761393    2.0073659   -2.5324767 
C     0.0016753    1.3497397   -3.3105742 
O    -0.5616254    0.6987648   -4.1050412 
H    -2.9511419   -3.1729408   -1.9482457 
C    -1.9798440   -3.0331165   -1.4754275 
C    -5.4181757   -1.2542933   -2.0753268 
H    -6.1334727   -2.0784128   -2.0531004 
H    -1.6560081   -1.0797364   -2.3370274 
H     5.4494266   -2.0486809   -2.5931427 
C     5.1049669   -1.0214260   -2.7245214 
H     3.6720698   -1.4890711   -4.2985186 
C     4.1178179   -0.7171914   -3.6719427 
C    -1.2596107   -1.8636085   -1.6880975 
C     5.6330999   -0.0070592   -1.9400880 
C    -4.0157175    0.2788278   -3.2617054 
H    -3.5934948    0.6867188   -4.1846946 
N    -1.0827655    5.1355921   -3.3432537 
H    -0.9443523    3.9603569   -5.0407011 
C    -1.6233757    4.3096512   -4.2563640 
C    -2.9533553    3.9078058   -4.2403117 
H    -3.3375351    3.2294893   -5.0016343 
C    -1.8761634    5.5847282   -2.3754297 
C    -3.7757408    4.4013243   -3.2183186 
H    -4.8233304    4.1026883   -3.1578225 
N    -3.5847063    0.8538080   -2.1242780 
C    -3.2415253    5.2590427   -2.2697075 
H     0.4243966    7.3800364   -1.7822050 
C     3.7219897    0.6102186   -3.7928185 
H     2.9663380    0.9008445   -4.5293669 
N     4.2220410    1.6084626   -3.0457821 
C     5.1398107    1.2963910   -2.1357386 
H     5.5489767    4.2892221   -1.7367353 
C    -4.9849862   -0.6817167   -0.8906666 
H     1.2768574    1.3947261    0.1367879 
C     0.8335713   -0.1337752    2.1161167 
C     0.3845868   -0.8012148    3.2626539 
H     1.0393046   -1.5475648    3.7181497 
C    -0.8639995   -0.5408416    3.8216120 
H    -1.1939891   -1.0826378    4.7084772 
H    -5.3260095   -1.0264035    0.0851114 
C    -0.0328926    0.8100853    1.5327127 
C    -1.6824340    0.4258841    3.2404361 
H     0.2948523   -4.4867053    0.6131874 
H    -1.9466332   -4.9388932   -0.4360894 
C    -0.1838304   -3.7688774   -0.0524492 
C    -1.4186925   -4.0047954   -0.6363778 
H    -2.6573528    0.6520407    3.6779901 
H     6.3888594   -0.1902664   -1.1766470 
C     0.4548677   -2.5463965   -0.3337656 
H     1.7719257   -0.4664907   -0.5883671 
O     1.6690795   -2.3610426    0.2503302 
N    -0.0599601   -1.6146635   -1.1320719 
H     3.3221637   -1.2099841   -0.1224012 
C     2.2774658   -1.0541012    0.1810080 
C     2.2378778   -0.4437506    1.5954771 
H     2.5902395   -1.2635455    2.2409254 
C     3.2412221    0.6852576    1.8462916 
H     3.7464194   -0.1189727    3.7733323 
C     3.9362584    0.6866481    3.0605953 
O     2.7859303    1.7291420   -0.2406445 
C    -4.0590518    0.3767304   -0.9741998 
O    -3.6439670    0.9158306    0.1947700 
C    -1.2833502    1.1247158    2.0980133 
H    -3.8310573    5.6620217   -1.4463405 
H     0.5070298    5.6161793   -1.8003319 
H    -1.8794909    1.6625366   -0.5859863 
O    -1.3729085    6.4039655   -1.4160600 
C     0.0581330    6.4691143   -1.2829901 
O     0.2985885    1.4581060    0.3755087 
C    -2.6670968    1.9772104    0.1051159 
H    -3.1413500    2.8784528   -0.3130458 
H    -3.1011300    2.1752821    2.1458232 
C    -2.1828729    2.2250250    1.5399277 
H     0.1566589    7.5862852    0.5179049 
C    -1.6449601    3.6383289    1.7961694 
C    -1.9846040    4.2480771    3.0106005 
C    -0.8485462    4.3764381    0.8988902 
H    -2.5927057    3.6871596    3.7238136 
C    -1.5771054    5.5437334    3.3147336 
O    -0.4441090    3.8216631   -0.2982931 
C    -0.4432461    5.6964382    1.1653935 
H    -1.8610282    6.0008378    4.2631799 
C    -0.8263920    6.2608633    2.3860413 
H    -0.2932121    2.8376745   -0.1320385 
C     0.4003438    6.5558414    0.2176839 
H    -0.5220893    7.2862695    2.6076802 
H     1.0794947    4.2004702   -0.4813535 
H     3.9984457    3.4430454   -1.7695428 
H     2.0060085    8.3848477    1.3326233 
C     1.9033851    6.4228233    0.4673484 
H     2.6395486    2.6870290   -0.5066056 
O     2.0920568    4.2120192   -0.5135078 
C     2.5748502    7.4856966    1.0852246 
C     2.6540891    5.2720783    0.1450461 
O     5.6538736    2.2620234   -1.3293121 
C     3.4934574    1.7355887    0.9440651 
C     4.8459272    1.6932470    3.3733892 
C     4.4343229    2.7484094    1.2122436 
H     5.3762883    1.6797012    4.3260846 
C     5.0915256    2.7037173    2.4479136 
C     4.8259952    3.8842051    0.2572868 
H     5.8248156    3.4806754    2.6761274 
H     5.8491944    4.1398243    0.5733347 
C     4.0199635    5.1626433    0.4780648 
C     4.9496405    3.5143873   -1.2340728 
C     4.6393664    6.2576949    1.0890564 
H     5.6991923    6.1835717    1.3431574 
C     3.9324385    7.4206137    1.3870644 
H     4.4329690    8.2650984    1.8614455 
