111
Energy = -3015.075455033
C    -1.4597106   -1.0816441    2.0903339 
H    -2.2295365   -3.0169874    2.6863639 
C    -1.5561185   -2.4815543    2.0171331 
O    -4.9071775   -2.4457393    2.3140647 
N    -0.6415105   -0.3510243    1.3408138 
C    -0.7409833   -3.1293501    1.0992440 
H    -0.7771789   -4.2169298    1.0133856 
C     0.1330306   -2.3796801    0.3003591 
H     0.7919084   -2.8571559   -0.4247293 
C     0.1423637   -0.9980004    0.4622447 
H    -3.8857714    5.9888102   -0.0260233 
H    -4.9429263    1.9387891    1.0407940 
H    -3.8607505    6.5283752    2.4340462 
C    -4.1118092    5.2188604    0.7135593 
H    -4.4307294    3.6308674   -0.7421054 
C    -4.6971317    2.9728636    1.2973874 
C    -4.0948745    5.5299033    2.0657162 
C    -4.4159223    3.9118119    0.3106326 
H     0.8117473   -0.3672052   -0.1298230 
H     3.3708798    3.5571615    2.4803016 
C    -5.1741226   -1.3172435    2.4812283 
H    -4.4241762   -4.2744663    4.2292708 
H    -5.4501735   -5.6595845    6.0519598 
C    -3.8285987   -4.6167444    5.0791141 
O    -5.4611114   -0.1913849    2.6225144 
H    -1.5669618   -5.6625418    7.9799589 
O    -2.2757132   -0.4576396    2.9911450 
C    -1.7798894   -4.6143280    6.0982940 
C    -2.2458394   -5.3907746    7.1721649 
C    -3.5789310   -5.7774063    7.1566124 
H    -3.9824789   -6.3770718    7.9742149 
O    -0.4645231   -4.2442964    6.1389993 
H    -3.1484099   -0.8198539    5.3438235 
C    -3.4715750   -0.6108004    6.3703729 
H    -3.6212177   -1.5465518    6.9304518 
N    -5.7275001   -1.8075904    5.5380790 
H    -1.6724558   -2.3106968    7.5351339 
O    -0.4988284   -1.9856023    5.4678560 
H    -6.7365457   -3.4612367    4.8114449 
C    -6.8571164   -2.4268736    5.1475437 
C    -8.1085851   -1.8246328    5.1442712 
C    -5.8338096   -0.5454607    5.9570808 
C    -4.3963215   -5.3847579    6.0900837 
N    -2.5401719   -4.2346316    5.0748896 
O    -4.7319556    0.1180153    6.3592642 
C    -0.0421240   -3.2820293    5.1618220 
H    -0.4531382   -3.5425396    4.1810048 
H     1.0550752   -3.3344547    5.1852459 
O    -2.5236705    0.2283275    6.9537406 
C    -1.8877100   -0.7708269    9.0497152 
C    -1.0770551   -1.8074463    8.3044528 
H    -0.7495678   -2.5847630    9.0118195 
C    -1.9076298   -0.7214061   10.4488095 
H    -8.9884952   -2.3740140    4.8106302 
C    -8.1975268   -0.4946117    5.5824106 
C    -7.0525012    0.1618790    5.9999178 
C    -2.5302143    0.2607893    8.3451708 
H    -9.1588174    0.0216854    5.5960300 
H    -2.9077777    1.2711591    3.7927538 
H     3.4990839    1.1446624    3.0944647 
C     0.1283648   -1.1537251    7.6497779 
H     2.4798865   -0.8536781    3.8182586 
C     0.3554479   -1.2268693    6.2663019 
C     1.5123523   -0.4303968    4.1307408 
H     0.7213081   -1.0351279    3.6721919 
C     1.3783248   -0.4908181    5.6436421 
C     2.2315526    0.2684062    6.4521249 
C     1.0041033   -0.3809751    8.4213504 
H     3.0155634    0.8630888    5.9786185 
C     2.0617316    0.3092548    7.8340711 
H     0.8279610   -0.3001809    9.4960811 
H     2.7343827    0.9071928    8.4508860 
C    -3.0746574    1.3806472    8.9919051 
H    -7.0674025    1.1932221    6.3516267 
C    -2.0053577    0.9183377    3.2843328 
H    -5.3597237    3.1015368    4.9036213 
O    -4.3473328    4.8206403    4.3007100 
N    -4.6808792    3.2536175    2.6118202 
O    -0.9033321    1.0106442    4.1751895 
H    -1.8000559    1.4706162    2.3577033 
H    -1.9976788    3.4716999    3.4890363 
C    -4.5336546    3.7439541    5.2315734 
H    -4.7413378    4.2540440    6.1829564 
C    -4.3856005    4.4975951    2.9736509 
O    -3.4071068    2.9114381    5.3276457 
H    -4.2861274    2.2192248    7.4370967 
C    -2.3476368    3.3902968    6.0961364 
C    -3.5651213    2.5632142    8.1871225 
C    -2.4085394    3.2665253    7.4950724 
H    -4.0819236    3.2612964    8.8644724 
C    -1.0795427    3.8762818    3.9270904 
C    -1.2093000    3.8874966    5.4424221 
C    -1.3218404    3.7301674    8.2443640 
H    -1.3446541    3.6205219    9.3308091 
H    -0.9802122    4.9073554    3.5538893 
C    -3.0649999    1.3966523   10.3923822 
C    -0.2022140    4.2772210    7.6209189 
C    -0.1421287    4.3338198    6.2305162 
C     1.4264210    0.9985418    3.6481997 
H     1.2481920    4.8093080    2.8463173 
C     2.4862660    3.0389786    2.8534889 
H     0.7585086    4.7037785    5.7361167 
H     0.6391479    4.6299652    8.2193296 
C     0.2121993    1.7004074    3.7379220 
C     0.1433724    3.0865179    3.5113100 
C     1.2928558    3.7350607    3.0411735 
C     2.5546074    1.6858963    3.1888161 
H    -1.4199696   -1.5201936   11.0124020 
H    -2.5229464    0.3656383   12.2102373 
C    -2.5115339    0.3425451   11.1194532 
H    -3.4965614    2.2545411   10.9132113 
