59
Energy = -3407.490376117
C     1.0793677    1.0601870    0.0125293 
C    -0.3234829    1.1081067    0.0903575 
C    -0.9213803    1.2221170    1.3458969 
C    -0.1447805    1.2880992    2.5011462 
C     1.2432883    1.2311016    2.4084024 
C     1.8775644    1.1038239    1.1697443 
C    -1.1309806    1.1343618   -1.1953357 
C    -1.4084471    2.5562391   -1.6546271 
C    -2.4767212    3.2953837   -1.1384663 
C    -2.6948110    4.6128612   -1.5322968 
C    -1.8378966    5.2129446   -2.4530306 
C    -0.7530377    4.5111538   -2.9805579 
C    -0.5403773    3.1840595   -2.5662727 
C     0.2607839    5.1659777   -3.9021787 
C     1.3380074    5.8969437   -3.1175600 
C     1.1364976    7.1935315   -2.6355334 
C     2.1124838    7.8374434   -1.8793987 
C     3.3100854    7.1855989   -1.5922532 
C     3.5419337    5.8857371   -2.0441576 
C     2.5430992    5.2447823   -2.7980444 
C     4.7888208    5.1094955   -1.6584218 
C     4.6344464    4.4410239   -0.3023363 
C     4.8840681    5.1308241    0.8871846 
C     4.6952679    4.5193899    2.1237535 
C     4.2464688    3.2016260    2.1857321 
C     3.9750650    2.4848281    1.0199349 
C     4.1637919    3.1181636   -0.2208261 
C     3.3925223    1.0827232    1.0498161 
O     3.8700937    2.3890972   -1.3602015 
O     2.7872207    3.9465702   -3.2093198 
O     0.5571703    2.5218286   -3.0857100 
O     1.6454777    0.9677267   -1.2470546 
H     3.6868292    0.5438203    0.1422350 
H     4.1178675    2.7078183    3.1491789 
H     5.2622796    6.1518650    0.8316978 
H     5.0041973    4.3557711   -2.4239895 
H     4.0886729    7.6903805   -1.0198658 
H     0.2083264    7.7078410   -2.8854455 
H     0.7177114    4.4059676   -4.5456894 
H    -2.0132477    6.2372316   -2.7824732 
H    -3.1588954    2.8115969   -0.4390903 
H    -0.5931040    0.5880403   -1.9781598 
H    -2.0095534    1.2415170    1.4113439 
H     1.8550197    1.2532580    3.3105831 
H     1.9180661    3.4505000   -3.3007610 
H     3.5962731    3.0081338   -2.1023544 
H     2.5580009    1.3895826   -1.2419575 
H     0.8797139    1.8299977   -2.4306001 
H     4.9099172    5.0670675    3.0416386 
H    -0.6235696    1.3714199    3.4770278 
H    -3.5389334    5.1712928   -1.1275837 
H     1.9428936    8.8527292   -1.5207350 
Cl    4.1371712    0.0919772    2.3751253 
Cl    6.2590399    6.1716195   -1.7012243 
Cl   -0.5492620    6.2762923   -5.0859451 
Cl   -2.6727003    0.1939121   -1.0216571 
C     0.5343435    5.2236292    0.3866120 
O    -0.0703829    6.1340025    0.8042482 
O     1.1422698    4.3096811   -0.0219450 
