59
Energy = -3407.517875984
C     0.9737161    1.2180586    0.0644159 
C    -0.4294143    1.2794243    0.0716663 
C    -1.0883120    1.4295649    1.2940149 
C    -0.3582061    1.5250723    2.4765147 
C     1.0326057    1.4660601    2.4590667 
C     1.7203303    1.3065068    1.2520305 
C    -1.2252079    1.2494186   -1.2203764 
C    -1.4219955    2.6309308   -1.8202637 
C    -2.5391406    3.3884427   -1.4530443 
C    -2.7264147    4.6681470   -1.9688909 
C    -1.8020870    5.2177466   -2.8546165 
C    -0.6705857    4.4904254   -3.2321300 
C    -0.4933906    3.1972410   -2.7112886 
C     0.3729869    5.1251464   -4.1329456 
C     1.4582910    5.8462248   -3.3513134 
C     1.2793780    7.1899979   -3.0059190 
C     2.2481745    7.8641966   -2.2672524 
C     3.4093106    7.2119857   -1.8580488 
C     3.6119697    5.8673227   -2.1775666 
C     2.6298850    5.1957572   -2.9247484 
C     4.8406053    5.1428069   -1.6589427 
C     4.6133595    4.5102021   -0.2967169 
C     4.8820740    5.2493953    0.8596299 
C     4.6523559    4.6992423    2.1176327 
C     4.1470845    3.4075974    2.2465298 
C     3.8598388    2.6481366    1.1101985 
C     4.1009391    3.2092718   -0.1545401 
C     3.2391580    1.2708219    1.2554655 
O     3.8325741    2.4258136   -1.2595793 
O     2.8624464    3.8719535   -3.2384584 
O     0.6211939    2.4941897   -3.1195362 
O     1.5969046    1.0481914   -1.1562324 
H     3.6093160    0.5999203    0.4663420 
H     3.5692268    0.8414040    2.2114228 
H     3.9706419    2.9919474    3.2391190 
H     5.2826854    6.2603267    0.7775068 
H     5.6591925    5.8698526   -1.5675016 
H     5.1728311    4.3863818   -2.3849567 
H     4.1579741    7.7533076   -1.2787461 
H     0.3773257    7.7162077   -3.3195514 
H     0.8154216    4.3690030   -4.7978379 
H    -0.1272649    5.8578979   -4.7809888 
H    -1.9593231    6.2235598   -3.2451109 
H    -3.2739815    2.9722332   -0.7631680 
H    -0.7455420    0.5791453   -1.9486929 
H    -2.2156432    0.8239721   -1.0080306 
H    -2.1773367    1.4769127    1.3248003 
H     1.5876410    1.5370137    3.3950266 
H     1.9840078    3.3901801   -3.3424182 
H     3.6114741    3.0105528   -2.0483999 
H     2.5185244    1.4546165   -1.1259893 
H     0.8913204    1.8356581   -2.4050149 
Cl    5.0066768    5.6336516    3.5455467 
Cl   -1.1949492    1.7125204    3.9938506 
Cl   -4.1279928    5.5901578   -1.5030232 
Cl    2.0071613    9.5383725   -1.8533540 
C     0.3940354    5.4764266    0.0586907 
O     1.0666165    4.5258750   -0.0726967 
O    -0.2763498    6.4249226    0.1980205 
