59
Energy = -11862.24434035
C     0.9073889    0.9978732    0.0554421 
C    -0.4839832    0.7822314   -0.0691569 
C    -1.1914481    0.3994528    1.0730849 
C    -0.5366507    0.2272757    2.2945112 
C     0.8376064    0.4522374    2.3998776 
C     1.5863686    0.8358574    1.2845352 
C    -1.1745077    1.0184196   -1.3958084 
C    -1.3691701    2.5013107   -1.6481939 
C    -2.2520538    3.2418439   -0.8590345 
C    -2.3858210    4.6204093   -1.0353725 
C    -1.5908162    5.2882407   -1.9673431 
C    -0.6929155    4.5891759   -2.7758816 
C    -0.6183749    3.1835654   -2.6344704 
C     0.2305735    5.3345304   -3.7202267 
C     1.2598327    6.1339676   -2.9488458 
C     1.1178303    7.5077491   -2.7393803 
C     2.0575184    8.2164368   -1.9871118 
C     3.1485394    7.5581462   -1.4148736 
C     3.3308282    6.1853380   -1.5979525 
C     2.3744793    5.4874900   -2.3691709 
C     4.4785006    5.4401102   -0.9491907 
C     4.0125997    4.7080991    0.2946611 
C     3.6101395    5.4212004    1.4251873 
C     3.1008541    4.7622412    2.5445037 
C     2.9337142    3.3761585    2.5268698 
C     3.3261136    2.6217115    1.4189739 
C     3.9021476    3.2979673    0.3177302 
C     3.0691474    1.1273929    1.3787075 
O     4.2712853    2.5842762   -0.7804385 
O     2.4761026    4.1362058   -2.4737045 
O     0.2633134    2.4844993   -3.3997714 
O     1.5979462    1.4651714   -1.0190635 
H     3.5939078    0.6892734    0.5199047 
H     3.4629960    0.6632340    2.2947590 
H     2.4785527    2.8724991    3.3822743 
H     3.6794512    6.5109661    1.4206254 
H     5.2607342    6.1638208   -0.6766348 
H     4.9090971    4.7207239   -1.6576130 
H     3.8762386    8.1203737   -0.8255158 
H     0.2661210    8.0306813   -3.1799534 
H     0.7307179    4.6181564   -4.3846725 
H    -0.3599785    6.0241951   -4.3410480 
H    -1.6539611    6.3747440   -2.0565710 
H    -2.8326741    2.7336784   -0.0862108 
H    -0.5820578    0.5834635   -2.2111425 
H    -2.1538034    0.5180232   -1.3786259 
H    -2.2674800    0.2267124    1.0025005 
H     1.3392442    0.3205410    3.3609368 
H    -1.1035787   -0.0819863    3.1738715 
H    -3.0948195    5.1801062   -0.4230036 
H     1.9395202    9.2921921   -1.8470494 
H     2.8066755    5.3335862    3.4265434 
Br    3.4922684    3.5407839   -4.0090026 
Br    6.1214596    1.9930782   -0.7484417 
Br    2.3571918    0.0754008   -2.1262815 
Br   -0.4904066    1.8277547   -5.0653857 
C     0.0728239    4.2036367    1.2065848 
O    -0.5376383    3.8693854    2.1505841 
O     0.6784101    4.5525811    0.2695841 
