59
Energy = -11862.48690059
C     1.1551833    0.9300939   -0.0197794 
C    -0.2463948    0.9489776    0.0748906 
C    -0.8336727    0.9419799    1.3430357 
C    -0.0354898    0.9271203    2.4840406 
C     1.3523418    0.9097555    2.3824675 
C     1.9695657    0.9049838    1.1264339 
C    -1.1195753    1.0466351   -1.1626906 
C    -1.3930504    2.4833885   -1.5732230 
C    -2.5106114    3.1470695   -1.0553642 
C    -2.7609369    4.4726067   -1.3964352 
C    -1.9069328    5.1635405   -2.2516864 
C    -0.7778419    4.5300020   -2.7769953 
C    -0.5350401    3.1901453   -2.4331503 
C     0.1918109    5.3080005   -3.6473227 
C     1.3018672    5.9671907   -2.8464594 
C     1.1117347    7.2570401   -2.3393944 
C     2.1067919    7.8688251   -1.5833989 
C     3.3053458    7.2130280   -1.3153277 
C     3.5199480    5.9202214   -1.8002112 
C     2.5116617    5.3098872   -2.5639705 
C     4.7961431    5.1793167   -1.4449359 
C     4.6687535    4.3726110   -0.1641749 
C     4.9836790    4.9714977    1.0608005 
C     4.8471242    4.2596053    2.2488111 
C     4.3913632    2.9438660    2.2428200 
C     4.0592049    2.3219471    1.0359647 
C     4.2051669    3.0452306   -0.1600392 
C     3.4864951    0.9164628    1.0404680 
O     3.8907294    2.3976785   -1.3365078 
O     2.7596921    4.0401175   -3.0459317 
O     0.5732712    2.5829618   -2.9884754 
O     1.7079159    0.9235716   -1.2841773 
H     3.8262059    0.3618094    0.1535682 
H     3.8835694    0.3827212    1.9147564 
H     4.2829490    2.3990001    3.1809002 
H     5.3447906    6.0001757    1.0805411 
H     5.5985991    5.9169311   -1.3067290 
H     5.1059949    4.5314284   -2.2780222 
H     4.0770475    7.7044673   -0.7221406 
H     0.1807467    7.7858570   -2.5455938 
H     0.6146500    4.6557628   -4.4256371 
H    -0.3676157    6.0961575   -4.1697118 
H    -2.1138501    6.2027300   -2.5089017 
H    -3.1915845    2.6176241   -0.3882914 
H    -0.6668908    0.4872929   -1.9945722 
H    -2.0818878    0.5623252   -0.9470644 
H    -1.9199583    0.9568289    1.4365418 
H     1.9643764    0.8965389    3.2847101 
H     1.8893802    3.5457341   -3.1620955 
H     3.5995434    3.0693016   -2.0301372 
H     2.6174417    1.3553236   -1.2573001 
H     0.8987006    1.8452226   -2.3860480 
Br    5.2877839    5.0951128    3.9035324 
Br   -0.8526579    0.9307337    4.2053692 
Br   -4.2972555    5.3526778   -0.6879531 
Br    1.8282344    9.6317760   -0.9115957 
C     1.1257715    4.3876163    1.4070261 
O     1.1144301    4.2441661    0.2438517 
O     1.1328200    4.5367924    2.5671410 
