63
Energy = -1870.477098930
C     1.0543947    1.0918016    0.1210442 
C    -0.3490118    1.1310303    0.1524809 
C    -0.9878447    1.2114090    1.3926348 
C    -0.2499783    1.2442689    2.5752711 
C     1.1415571    1.2017518    2.5251519 
C     1.8142095    1.1214257    1.3017735 
C    -1.1650818    1.1380451   -1.1391603 
C    -1.4087693    2.5601797   -1.6232785 
C    -2.5283907    3.2693564   -1.1776305 
C    -2.7539393    4.5819002   -1.5860637 
C    -1.8512477    5.2052658   -2.4467348 
C    -0.7217244    4.5267026   -2.9119770 
C    -0.5100311    3.2045138   -2.4889073 
C     0.2865102    5.2320889   -3.8172912 
C     1.3540673    5.9381980   -2.9937746 
C     1.1419105    7.2479075   -2.5513894 
C     2.0900402    7.9023385   -1.7682598 
C     3.2689467    7.2468081   -1.4149637 
C     3.5145455    5.9378553   -1.8393111 
C     2.5448079    5.2913951   -2.6238898 
C     4.7870072    5.2117960   -1.4051211 
C     4.5767727    4.5008425   -0.0758294 
C     4.8054607    5.1815363    1.1244782 
C     4.5860270    4.5612246    2.3524287 
C     4.1280163    3.2449939    2.3918313 
C     3.8878431    2.5345048    1.2123697 
C     4.1121310    3.1761782   -0.0167564 
C     3.3357679    1.1109245    1.2685117 
O     3.8651468    2.4504504   -1.1687070 
O     2.8114890    3.9941601   -3.0243482 
O     0.6141595    2.5554866   -2.9696313 
O     1.6611498    1.0091949   -1.1207850 
H     3.6704882    0.5628821    0.3695766 
H     3.9439576    2.7501650    3.3464477 
H     5.1781193    6.2042379    1.0773954 
H     5.0504463    4.4633261   -2.1736785 
H     4.0155780    7.7447278   -0.7948769 
H     0.2243515    7.7532412   -2.8513723 
H     0.7732384    4.4794265   -4.4632759 
H    -2.0122985    6.2353462   -2.7679747 
H    -3.2341952    2.7625533   -0.5202296 
H    -0.6053484    0.5875496   -1.9165791 
H    -2.0777370    1.2513859    1.4176587 
H     1.7312262    1.2066323    3.4414411 
H     1.9464625    3.4907774   -3.1420965 
H     3.6038210    3.0731510   -1.9154100 
H     2.5713587    1.4365143   -1.0846722 
H     0.9186991    1.8610914   -2.3068857 
H     4.7684333    5.1054784    3.2795583 
H    -0.7604981    1.3028230    3.5372345 
H    -3.6344051    5.1203550   -1.2334618 
H     1.9096853    8.9231865   -1.4300017 
O     3.7874663    0.4173313    2.4360127 
H     4.7522884    0.5391721    2.4785981 
O     5.8804411    6.1197032   -1.2391544 
H     5.9108191    6.6711756   -2.0407132 
O    -0.3435980    6.2190949   -4.6400361 
H    -1.1170125    5.7908966   -5.0475207 
O    -2.4431477    0.5203123   -0.9563735 
H    -2.2816811   -0.3281347   -0.5074063 
C     1.1446472    5.2710809    0.8499479 
O     1.2054778    6.1832771    1.5808143 
O     1.0727158    4.3562085    0.1228373 
