63
Energy = -1870.516083497
C     0.9734552    1.1170899    0.0461525 
C    -0.4294050    1.1129004    0.0461330 
C    -1.1016644    1.1924839    1.2699624 
C    -0.3974206    1.2837260    2.4723805 
C     0.9979761    1.2926295    2.4523343 
C     1.6999697    1.2062178    1.2470269 
C    -1.2172219    1.0937574   -1.2504500 
C    -1.4675478    2.4864335   -1.8028154 
C    -2.6040629    3.1920050   -1.3997690 
C    -2.8474583    4.4846791   -1.8652083 
C    -1.9424673    5.0821391   -2.7446726 
C    -0.7908285    4.4067886   -3.1592242 
C    -0.5638817    3.1076904   -2.6820569 
C     0.2150211    5.1030517   -4.0573509 
C     1.2699531    5.8666318   -3.2758177 
C     1.0444882    7.2044511   -2.9424622 
C     1.9784097    7.9257316   -2.1979819 
C     3.1533794    7.3006309   -1.7758926 
C     3.4046182    5.9603027   -2.0849093 
C     2.4573229    5.2533902   -2.8395279 
C     4.6490626    5.2777265   -1.5488431 
C     4.4133636    4.6116623   -0.2042578 
C     4.5749979    5.3561770    0.9670260 
C     4.3284905    4.7895862    2.2182501 
C     3.9199875    3.4567782    2.3012578 
C     3.7404295    2.6868592    1.1476450 
C     3.9865355    3.2757800   -0.1019052 
C     3.2173464    1.2665032    1.2604755 
O     3.8034779    2.4942375   -1.2307287 
O     2.7423971    3.9359480   -3.1582248 
O     0.5731200    2.4488608   -3.1223441 
O     1.6186900    1.0148265   -1.1747544 
H     3.6350944    0.6423057    0.4574258 
H     3.5705947    0.8381955    2.2090091 
H     3.7233681    3.0066542    3.2786559 
H     4.9011663    6.3962081    0.9154506 
H     5.4363446    6.0345328   -1.4241469 
H     5.0272441    4.5466340   -2.2781229 
H     3.8897048    7.8598853   -1.1908029 
H     0.1331142    7.7060151   -3.2721299 
H     0.6891508    4.3749223   -4.7317547 
H    -0.3236085    5.8180132   -4.6951918 
H    -2.1269985    6.0959504   -3.1125514 
H    -3.3236115    2.7325791   -0.7200617 
H    -0.7045363    0.4708284   -1.9978427 
H    -2.1902757    0.6194812   -1.0598951 
H    -2.1957147    1.1883069    1.2773508 
H     1.5372002    1.3634893    3.3981831 
H     1.8845494    3.4188961   -3.2720600 
H     3.5291932    3.0841892   -2.0015124 
H     2.5153872    1.4720372   -1.1268104 
H     0.8789854    1.8000921   -2.4153889 
O     4.5092988    5.5831147    3.3243209 
H     4.2473467    5.0761608    4.1122407 
O    -1.0172432    1.3612338    3.6954760 
H    -1.9794118    1.3718458    3.5524449 
O    -3.9912170    5.1132854   -1.4332578 
H    -4.0202560    6.0013203   -1.8292841 
O     1.6930090    9.2413337   -1.9187635 
H     2.4236081    9.6076118   -1.3911789 
C     0.7638175    4.6775151    1.1429342 
O     0.8928964    4.4417263    0.0039798 
O     0.6244577    4.9259622    2.2792867 
