63
Energy = -3161.937940113
C    -0.3533313    1.1563942    0.1362122 
C    -0.9281978    1.1936870    1.4077199 
C    -0.1369641    1.1968208    2.5624564 
C    -1.2339287    1.2440992   -1.0960808 
C    -1.4587707    2.6781898   -1.5439176 
C    -2.5169663    3.4101277   -0.9980400 
C    -2.7309174    4.7484007   -1.3425636 
C    -1.8804782    5.3516491   -2.2744347 
C    -0.8203564    4.6484831   -2.8505801 
C    -0.6110215    3.3138244   -2.4687401 
H    -0.4233962    6.1296338   -4.3382432 
H    -2.0289674    6.4003919   -2.5398733 
H    -3.1885509    2.9184811   -0.2916456 
H    -0.8092898    0.6456812   -1.9151509 
H    -2.2110620    0.8014633   -0.8576125 
H    -2.0158804    1.2375107    1.4961036 
S    -0.9576375    1.2167647    4.1329661 
S    -4.0732399    5.7029189   -0.6789714 
H    -4.0995286    5.1013164    0.5327219 
H     0.1318658    1.5359928    4.8676287 
O    -0.7182920    4.8282697    1.7114100 
H     0.2087881    7.8988287   -2.8796534 
C     0.1507977    4.6394842    0.9499363 
H     0.6690669    9.8175341   -1.5506446 
O     1.0266153    4.4602345    0.1935299 
C     0.1370533    5.3609925   -3.7880214 
C     1.0464902    1.1214950    0.0272018 
C     1.2540495    1.1573543    2.4273810 
C     1.8643928    1.1215417    1.1698828 
C     1.2739905    6.0413393   -3.0455978 
C     1.1262378    7.3653893   -2.6221879 
C     2.1299913    8.0134832   -1.8965424 
C     3.3064624    7.3171084   -1.5976320 
C     3.4902304    5.9961565   -2.0086088 
C     2.4658118    5.3668855   -2.7333227 
C     4.7452511    5.2444823   -1.6056278 
C     4.5912133    4.5056077   -0.2873057 
C     4.9026439    5.1588917    0.9085080 
C     4.7457686    4.5271802    2.1456380 
C     4.2752293    3.2096222    2.1786021 
C     3.9580998    2.5254756    1.0042579 
C     4.1165638    3.1848679   -0.2247603 
C     3.3800956    1.1240975    1.0753438 
O     3.8057002    2.4819367   -1.3740830 
O     2.6794253    4.0646577   -3.1456875 
O     0.4547180    2.6430398   -3.0365865 
O     1.5888462    1.0749202   -1.2422379 
H     3.7125243    0.5294641    0.2118684 
H     3.7805448    0.6282215    1.9705639 
H     4.1403839    2.7056668    3.1382618 
H     5.2865825    6.1801866    0.8628691 
H     5.5636795    5.9700165   -1.4983217 
H     5.0462520    4.5485491   -2.4024512 
H     4.0951009    7.8068039   -1.0221213 
H     0.5299768    4.6607577   -4.5394887 
H     1.8873955    1.1432645    3.3169071 
H     1.7997167    3.5860199   -3.2409022 
H     3.5144797    3.1245488   -2.0934148 
H     2.5059168    1.4942454   -1.2370968 
H     0.7841668    1.9377051   -2.3973964 
S     5.1560728    5.3031652    3.6867088 
H     5.2134639    6.5667397    3.2084949 
S     2.0036269    9.7010081   -1.3661200 
