95
Energy = -2557.306491617
C    -3.3749656   -0.5723729   -1.2710777 
H    -0.2493218   -3.2161321   -1.0109451 
H    -3.3835521   -1.6520880   -1.0893997 
C    -3.7362835   -0.0631293   -2.5188336 
H    -4.0226407   -0.7340052   -3.3296681 
C    -3.7172493    1.3207611   -2.6899076 
C     0.6547874   -2.7297636   -0.6402565 
H    -3.9891024    1.7694855   -3.6470156 
H    -0.5782756    2.3986277   -0.7074807 
C    -3.3354693    2.1289249   -1.6218139 
H     2.0119056   -3.7549175   -1.9938047 
C     1.9023189   -3.0297176   -1.1865551 
H     5.3767012   -0.1515526   -3.1675806 
C     5.1819564    0.9169984   -3.0595646 
H     5.3030123    1.3659250   -5.1829502 
C     5.1412422    1.7519460   -4.1757805 
C     4.9603125    1.4634650   -1.7978363 
H     2.3327423    2.2952345   -0.8316490 
H    -2.5556362    4.7428800   -4.8617312 
N    -1.2933763    5.3059720   -3.3254849 
C    -1.5096790    4.9141356   -4.5868844 
C    -0.4931342    4.7246293   -5.5236317 
H    -0.7271788    4.3956671   -6.5368257 
C    -0.0257895    5.5277288   -2.9396074 
O    -0.6147405    3.3026576   -1.1650314 
H    -3.2969867    3.2132173   -1.7303970 
C     0.1521823    6.0454096   -1.5128533 
H    -0.0346583    7.1293166   -1.6056499 
C     0.8196613    4.9680272   -5.1210623 
C     1.0604670    5.3791149   -3.8123252 
C     4.8848742    3.1076808   -3.9683932 
H     4.8520602    3.8013230   -4.8149977 
C     4.6957882    2.8356043   -1.6918651 
H     0.8948941    3.6067279   -1.5044664 
H     1.6512857    4.8327503   -5.8149165 
N     4.6671534    3.6463909   -2.7626673 
H     2.0774466    5.5629582   -3.4646064 
C     1.5641760    5.9592848   -0.9311840 
O     1.9072876    3.6379422   -1.5228155 
C     2.3563103    4.7943014   -0.9352059 
N    -3.0033152    0.1914760   -0.2367137 
C    -2.9753406    1.5231974   -0.4106237 
H     0.8685391    1.0883032   -0.0360094 
O    -0.1394594    1.1091064    0.0827028 
C    -0.4575610    1.0672372    1.4160605 
C     0.3996065    0.4472406    2.3473242 
C    -1.6830360    1.6383438    1.8064061 
C     0.0039987    0.4386750    3.6918937 
C    -2.0315805    1.5970348    3.1582459 
H     0.6605276   -0.0355874    4.4248371 
C    -1.1955738    1.0092609    4.1056148 
H    -1.4827372    0.9879701    5.1570970 
C     0.5735699   -1.7893960    0.3838428 
H    -0.3897235   -1.5240286    0.8204298 
H    -2.9807207    2.0384464    3.4694790 
C    -2.6168262    2.3459517    0.8262446 
H     4.0178537   -2.5812347   -1.0617958 
H     4.9717392    0.8328523   -0.9083705 
C     3.0178079   -2.3707150   -0.6687440 
O     2.3744279    1.4468065   -0.2774160 
C     1.7482319   -0.1826184    1.9950093 
H     1.9857782   -0.8145331    2.8683264 
C     1.7492524   -1.1690026    0.8274063 
C     2.8827455    0.8393627    1.9596496 
N     2.9547750   -1.4630729    0.3128828 
C     3.6669683    1.0158774    3.1013275 
C     3.1455361    1.6484413    0.8397509 
H     3.4726660    0.3882342    3.9738561 
C     4.6854345    1.9662871    3.1420346 
H    -3.5719630    2.4196850    1.3744358 
C    -0.9167418    5.5701410   -0.5306891 
C    -1.2487922    4.2137684   -0.3592522 
C    -2.2160007    3.8016904    0.5799769 
C    -2.8255031    4.7901225    1.3651238 
H    -3.5716909    4.4842716    2.1016030 
C    -2.5044733    6.1364785    1.2245225 
H    -2.9943815    6.8871531    1.8450091 
C    -1.5591850    6.5145176    0.2728982 
H    -1.3085387    7.5697123    0.1441885 
H     1.4910581    8.0162868   -0.3134635 
C     2.0943949    7.1056623   -0.3243180 
C     3.3621145    7.1091693    0.2488681 
H     3.7565817    8.0159215    0.7083554 
C     3.6459269    4.7746572   -0.3744863 
H     5.2906046    2.0885254    4.0407858 
C     4.1286622    5.9459464    0.2122756 
H     5.1310319    5.9407354    0.6461100 
C     4.1806320    2.6041655    0.8426492 
C     4.5149352    3.5190828   -0.3366468 
H     5.5238339    3.9007706   -0.1025645 
C     4.9337665    2.7445973    2.0157821 
H     5.7389139    3.4826530    2.0327995 
C     0.4785596    4.2910611    2.8865718 
O    -0.0998955    4.6657250    3.8330602 
O     1.0690154    3.9225380    1.9453647 
