95
Energy = -2557.302498751
O     0.2056523    1.0949500    0.1789006 
C     1.1114545   -2.3705456    3.1380901 
H     0.1082009   -2.2145025    2.7413869 
H     0.7512272   -4.4067924    3.7584018 
H     1.1947702    1.2095770    0.3123034 
C    -0.4201699    0.9502505    1.4061596 
C    -1.7574607    1.3790106    1.5111779 
C    -1.7173493    0.7562098    3.8575180 
H    -2.2222506    0.6908692    4.8221548 
C     0.2683492    0.3999170    2.5013371 
C    -0.3997559    0.3266241    3.7289537 
C    -2.3905681    1.2764230    2.7519825 
H    -1.8994803    1.6646835   -0.5890907 
H    -0.2091270    2.4827341   -0.6620640 
H    -6.7890984    1.6838090    1.5495059 
N    -4.8042002    1.8451946    0.9978570 
C    -6.0635019    1.4534208    0.7633853 
C    -2.4301473    2.0282565    0.3000854 
H     0.1256212   -0.0844537    4.5927605 
O    -0.2843113    3.3935557   -1.0754895 
C    -3.8687907    1.5893416    0.0669263 
H    -3.4216893    1.6182710    2.8381349 
C    -6.4653438    0.7919117   -0.3964826 
H    -7.5062426    0.4972979   -0.5336414 
C    -5.4978448    0.5241474   -1.3640147 
C    -4.1858941    0.9270971   -1.1289048 
H    -5.7602196    0.0088846   -2.2895872 
H    -3.4047148    0.7335707   -1.8659679 
H     1.9353360   -0.2396562    1.3191390 
C     1.4721194   -3.5889124    3.7065894 
O     2.7747064    1.7657210    0.4770771 
C     1.7310480   -0.0189092    2.3799176 
C     2.0574125   -1.3346116    3.0853494 
C     2.6209732    1.1506984    2.7787997 
N     3.3055442   -1.4875119    3.5521474 
C     2.8812038    1.4449077    4.1186106 
C     3.1041107    2.0317456    1.7973113 
C     3.6401933   -2.6643868    4.0992107 
H     2.5100989    0.7716895    4.8914188 
C     3.6000299    2.5834113    4.4766827 
C     3.8803151    3.1572924    2.1291067 
H     4.6674070   -2.7427244    4.4691298 
C     2.7653528   -3.7445487    4.2070374 
H     3.7793821    2.8105775    5.5280368 
H     3.0906201   -4.6790344    4.6657164 
C     4.0954904    3.4274820    3.4849145 
H     2.7245642    2.6371250   -0.0212640 
H     6.4243697    2.6953770    2.3288306 
C    -2.2501411    3.5494630    0.3456679 
H    -3.9110436    3.8987704    1.6555140 
C    -1.1810153    4.1563320   -0.3402518 
C    -3.0894506    4.3646826    1.1115673 
C    -0.1110465    8.5704672   -3.9181441 
C     0.1459486    7.4128076   -3.1884425 
H     0.0336414    8.5854309   -4.9997504 
H     0.4951943    6.5074013   -3.6875375 
C    -0.9702107    5.5469516   -0.3026439 
C    -2.8879153    5.7418160    1.1705899 
H    -3.5523862    6.3632888    1.7725783 
C    -1.8365351    6.3276511    0.4670669 
H    -0.7695063   10.6362783   -3.7670070 
C    -0.5546940    9.7055591   -3.2409447 
C    -0.0450136    7.4140194   -1.7982780 
H     0.5360583    5.4201660   -1.7960673 
H    -1.6687009    7.4036222    0.5076344 
C     0.2455870    6.1390742   -1.0193070 
N    -0.4722778    8.5105558   -1.1486087 
C    -0.7176857    9.6194103   -1.8588015 
H     0.8328731    8.1606397    0.7441356 
H    -1.0635192   10.4857592   -1.2865859 
H     8.8458345    3.3077838    2.4161121 
C     6.7799495    3.6180027    1.8707031 
C     8.1288836    3.9623104    1.9171853 
H     4.3922211    3.5686760    0.0904183 
C     4.4068733    4.1036255    1.0541764 
H     1.3002893    3.9175060   -0.9599183 
C     8.5446884    5.1512260    1.3183449 
H     9.5895394    5.4635499    1.3350446 
C     5.8788520    4.4778568    1.2247194 
O     2.2658839    4.0836699   -0.7429348 
C     7.5792653    5.9342294    0.6852556 
N     6.2802055    5.6134534    0.6318816 
H     7.8597922    6.8698149    0.1909671 
H     4.6696017    4.3129891    3.7625896 
C     3.4640575    5.2932041    0.9248309 
C     2.3765059    5.2240619    0.0392365 
C     1.5710037    7.3607109    0.8000297 
C     1.4283393    6.2621285   -0.0533483 
H     2.7353064    8.3068788    2.3492141 
H     4.4214667    6.4854745    2.4364474 
C     3.5796677    6.4161952    1.7471882 
C     2.6384281    7.4409174    1.6934062 
C     0.6834187    4.5967903    3.2918201 
O     0.8195117    5.2979211    4.2195875 
O     0.5353463    3.8915655    2.3697837 
