95
Energy = -2557.355787169
O    -0.1142727    1.1296734    0.2023462 
C    -0.4679668    1.2843246    1.5280149 
C     0.3152425    0.7357987    2.5592403 
C    -1.6487240    1.9925392    1.8031446 
C    -2.4498517    2.6460686    0.6936099 
H    -3.4941268    2.7322250    1.0246010 
H    -2.4567015    2.0121528   -0.2054456 
C    -1.9447236    4.0405047    0.3642503 
C    -0.9694885    4.2677676   -0.6233526 
O    -0.4440200    3.2247267   -1.3605738 
H    -0.4704642    2.3839421   -0.8067517 
C    -2.4118543    5.1344115    1.0909042 
H    -3.1665652    4.9904977    1.8654189 
C    -2.0335893    2.1489311    3.1338009 
H    -2.9614027    2.6860901    3.3386610 
H     0.4897029    5.0739288   -2.7663796 
O     1.2971829    4.2013545    1.8528593 
H     0.8782511    0.9997731    0.1213821 
C     1.6258495    0.0211574    2.2789422 
H     1.5623643   -0.5675894    1.3519444 
H     1.8066618   -0.6922527    3.0944568 
C     2.7955649    0.9866619    2.2201221 
C     3.1847121    1.5906349    1.0117502 
O     2.5155556    1.2148662   -0.1362249 
C     4.2220848    2.5391470    0.9672154 
C     4.8301955    2.9049478    2.1697370 
H     2.5306985    1.9792372   -0.7871595 
C     4.6598706    3.2030228   -0.3277171 
H     5.6394029    3.6371430    2.1374210 
H     4.5210060    2.5220716   -1.1801238 
H     5.7386132    3.4033922   -0.2616186 
C     3.9432386    4.5171092   -0.5728477 
C     2.6818343    4.5491399   -1.1925750 
O     2.1729058    3.3589517   -1.6609293 
H     1.1654415    3.3931865   -1.6776097 
C     2.0176735    4.8970583    2.4587457 
C    -0.5019837    5.5612567   -0.9053106 
C    -1.9400552    6.4348341    0.8660633 
C    -0.9949137    6.6253610   -0.1517712 
H    -0.6298770    7.6286079   -0.3788364 
C    -2.4347043    7.5543518    1.6979498 
H    -0.7584281    8.8865739    1.3177787 
C    -1.7187040    8.7605784    1.8183084 
N    -3.5942621    7.3550093    2.3615361 
H     0.4307222    6.7940319   -2.3811045 
C     0.5793033    5.7974530   -1.9429530 
C    -2.2301253    9.7815118    2.6124886 
H    -1.6845437   10.7209485    2.7176290 
C    -4.0690402    8.3442052    3.1248111 
O     2.7287281    5.5979105    3.0711860 
H     5.4471936    5.6734672    0.4096319 
C     4.4817127    5.7127548   -0.0982183 
H     2.0019773    7.8670594   -0.9118244 
C     1.9675812    5.7532972   -1.3314423 
C     2.5387987    6.9212070   -0.8288303 
C     3.7957342    6.9310994   -0.2092378 
C     4.3437986    8.1982224    0.3221931 
N     3.4637275    9.2052954    0.5143281 
C     3.9166698   10.3626258    1.0054736 
C     5.7119727    8.3581724    0.6104973 
H     6.4163945    7.5508518    0.4105752 
C     5.2513561   10.5986914    1.3398179 
C     6.1658632    9.5665312    1.1286364 
H     7.2244431    9.7043518    1.3559621 
H     3.1670073   11.1486384    1.1428125 
H     5.5609114   11.5627143    1.7443330 
C    -0.1087596    0.9155523    3.8751695 
C    -1.2759886    1.6246755    4.1906125 
C    -1.6695578    1.8041382    5.6059968 
N    -1.1141980    0.9607854    6.5028213 
C    -2.5598241    2.8179430    6.0076180 
C    -1.4426533    1.0938647    7.7912717 
C    -2.8964897    2.9385553    7.3517687 
H    -0.9664003    0.3883764    8.4799184 
C    -2.3328512    2.0553790    8.2731799 
H    -3.5834102    3.7216340    7.6777286 
H    -2.5671078    2.1125198    9.3366106 
H     0.4745321    0.4968076    4.6964253 
H    -2.9646259    3.5195838    5.2782423 
H     5.5307434    1.4638652    7.6491484 
C     3.4475388    1.3640644    3.3917586 
C     4.4538472    2.3399690    3.3953332 
H     5.6088152    4.7564074    4.0149001 
H     3.1615919    0.9147036    4.3438316 
C     5.0753417    2.7562954    4.6712380 
N     5.0376591    1.8666940    5.6858056 
C     5.6471321    4.0323005    4.8288878 
C     5.5850031    2.2149818    6.8545815 
C     6.1978594    3.4471052    7.0910675 
C     6.2185398    4.3756133    6.0498938 
H     6.6321733    3.6726887    8.0655326 
H     6.6611080    5.3631553    6.1918943 
C    -3.4382748    9.5798262    3.2807231 
H    -5.0116252    8.1371148    3.6420333 
H    -3.8772004   10.3517885    3.9135117 
