111
Energy = -3015.128016559
H    -1.9849726    3.3394651   -4.0452634 
H     1.9827931   -3.2029237   -3.6436061 
H     5.9484176   -2.6203028   -1.9595158 
C     6.0053224   -1.5366601   -1.8588145 
C     4.8545031   -0.7599011   -1.9391964 
C     7.2262753   -0.8830446   -1.6422504 
H     8.1553831   -1.4515320   -1.5721176 
H     3.8760567   -1.2255915   -2.0967822 
C     7.2483876    0.4970084   -1.5080772 
H    -0.0064415   -4.7018245   -3.8792811 
C    -2.9307542    3.2282909   -3.5082604 
N    -2.9056065    2.4157973   -2.4384427 
H    -4.0285692    4.5663589   -4.7962498 
C    -4.0673914    3.9107140   -3.9269785 
C    -4.0293939    2.2638395   -1.7459468 
C    -5.2449588    3.7335545   -3.1880768 
H    -6.1624801    4.2505776   -3.4749221 
C    -5.2390637    2.9002028   -2.0791763 
N    -0.7825621    5.7633786   -4.6505191 
C    -2.2006281    6.4909019   -6.4619036 
H    -2.4467389    6.4434369   -7.5223925 
C    -2.9308182    7.2969206   -5.5755308 
H    -3.7696242    7.8963721   -5.9335813 
C    -1.1418765    5.7516502   -5.9475436 
C    -1.4938168    6.5286680   -3.8247719 
C    -2.5825568    7.3230249   -4.2351411 
H    -6.1254996    2.7356351   -1.4670828 
H    -0.2374420    4.7220309   -2.3899337 
H    -3.1208180    7.9228520   -3.5018555 
O    -1.1789985    6.5685232   -2.5103206 
H    -0.5409134    5.1102040   -6.5987934 
H     0.8599033    6.1133026   -2.5421125 
C     6.0225796    1.1820899   -1.5975546 
N     4.8586157    0.5795144   -1.8148771 
H     4.9651708    4.1791195   -1.9414165 
H     4.0337585    2.6617920   -1.8021443 
H     1.0501164    0.8179640   -0.0060000 
C     0.8525494   -0.0132923    2.3137140 
C     0.5980788   -0.0275779    3.6905058 
H     1.3552995   -0.4504291    4.3546901 
H    -2.9577478   -0.1252854    0.0610316 
O     0.0692001    0.6330902    0.1130656 
C    -0.5852866    0.4738372    4.2246950 
H    -0.7591905    0.4463864    5.3008874 
C    -0.1358866    0.5418771    1.4772267 
C    -1.5535009    0.9912660    3.3684173 
H    -2.4886685    1.3828214    3.7746123 
C    -1.3512083    1.0401223    1.9840886 
H    -1.4901045   -5.0450576   -1.8641482 
H    -0.9033323   -3.8633620    0.2801637 
O     1.1275816   -2.3169888    0.5694961 
C    -0.6098981   -4.4025033   -1.8066018 
C    -0.2977957   -3.7593984   -0.6197951 
C     0.8455375   -2.9379373   -0.6003027 
C     0.2100272   -4.2148547   -2.9288630 
C     1.3139612   -3.3819077   -2.7964870 
H     2.1769138   -0.7736869   -0.3482853 
N     1.6399944   -2.7497127   -1.6536766 
C     2.2284109   -1.3913609    0.5538587 
H     3.1794975   -1.9447426    0.4984606 
C     2.1980194   -0.5960335    1.8634479 
H     2.4397343   -1.3283283    2.6494988 
C     3.3425541    0.4143286    1.8999069 
H     4.2784977   -0.5499738    3.5743480 
C     4.3391519    0.2840184    2.8713086 
H     8.1689840    1.0520410   -1.3292465 
O     2.4657743    1.5709178    0.0340831 
C    -0.0677339    5.7564518   -2.0694849 
H    -2.0433804    1.0196527   -0.9572639 
O    -4.0534375    1.4443640   -0.6578071 
C    -2.7943263    0.9372117   -0.1688268 
H    -3.3581918    1.5760003    1.7428354 
H    -0.2391232    7.0187066   -0.4165671 
H    -0.3892111    2.1303463   -0.3030021 
C    -2.4479626    1.6838705    1.1326519 
C    -0.0226543    5.9471176   -0.5465567 
O    -0.3935645    3.1129757   -0.5230362 
H    -3.9789486    3.5406657    2.2612054 
C    -2.2872678    3.1993521    0.9863602 
C    -3.1875155    4.0188435    1.6801559 
C    -1.2816559    3.8322685    0.2278540 
C    -3.1004243    5.4069193    1.6424241 
C    -1.1486096    5.2351514    0.1994545 
H    -3.8183092    6.0196291    2.1880263 
C    -2.0773072    6.0017192    0.9090142 
H    -1.9869357    7.0896135    0.8790744 
H     1.0146863    3.6332951   -1.0930515 
C     1.3535691    5.7750873    0.1047783 
H     0.9684517    7.4478808    1.3969772 
O     1.9987098    3.8301579   -1.1843565 
H     2.4684398    2.4361239   -0.4743818 
C     1.6935731    6.6798970    1.1187039 
C     2.2975880    4.7833608   -0.2285919 
O     6.0769599    2.5371563   -1.4595624 
C     2.9260652    6.6242248    1.7639866 
H     3.1714173    7.3456271    2.5440328 
C     3.4339649    1.4871239    0.9926790 
C     5.3940190    1.1903314    2.9547393 
C     4.4797604    2.4263305    1.0598902 
H     6.1662982    1.0710336    3.7150459 
C     5.4500285    2.2502590    2.0535967 
C     4.6081708    3.6289732    0.1244154 
H     6.2734968    2.9659155    2.1068430 
H     5.5593715    4.0982565    0.4207361 
C     3.5568164    4.7085479    0.3970241 
C     4.8318622    3.2591116   -1.3554917 
C     3.8487004    5.6516972    1.3893309 
H     4.8192756    5.6012321    1.8875725 
C     0.4763939    4.0210572    3.1837750 
O    -0.2353510    4.6816444    3.8387445 
O     1.1985704    3.3605253    2.5416640 
