111
Energy = -3015.179148713
O     0.0913216    0.8947500    0.1625225 
C    -0.3004491    1.0805436    1.4779496 
C    -1.5894370    1.5936877    1.7053377 
C    -2.5228235    1.9375396    0.5572984 
H    -2.2998528    1.3088041   -0.3173973 
H    -0.4181447    2.2297158   -0.7095098 
H    -3.5515945    1.6985781    0.8612597 
O    -0.4876259    3.1127876   -1.1824833 
H     1.0804372    1.0554229    0.1195622 
H     1.9908471   -0.3558132    1.3550173 
C     3.2640200    2.1030277    1.2417620 
O     2.5905885    1.8073407    0.0751063 
C     4.1562442    3.1866997    1.3175415 
H     2.5446470    2.6016074   -0.5340268 
H     4.3873268    3.6208347   -0.7977087 
C     1.9577154    0.1997856    2.3037384 
C     4.3371957    4.1536089    0.1630849 
H     5.3022753    4.6640431    0.2899871 
O     2.0351414    3.9168760   -1.4804428 
H     1.0665391    3.6732474   -1.5583861 
C    -2.4666669    3.4092976    0.1941739 
C    -1.4347941    3.9301307   -0.6073700 
C    -3.4203726    4.3001873    0.6968066 
C    -3.3704982    5.6706224    0.4264062 
C    -2.3191045    6.1542423   -0.3567295 
C    -1.3384395    5.3064509   -0.8719006 
H    -2.2506319    7.2278643   -0.5393374 
H    -5.4057522    6.1399809    0.9581124 
H    -4.2300181    3.9056105    1.3167866 
C    -4.4106499    6.6038137    0.9826005 
H    -0.4033928    6.8741476   -1.9742128 
C    -0.1412627    5.8721232   -1.6062593 
H     0.1019744    5.2669589   -2.4919265 
H     0.3155773    7.7702712    0.2642829 
C     1.1437824    7.0585263    0.2139624 
C     3.2365950    5.1994779    0.1326347 
C     2.1057207    5.0495244   -0.6871757 
C     1.0701673    6.0000355   -0.6969217 
C     3.2773766    6.2864108    1.0053152 
C     2.2266811    7.2048538    1.0834960 
H     4.1294481    6.3896173    1.6819673 
H     1.5342221    9.0813579    1.9211698 
C     0.1568872    1.0894391    3.8356640 
C    -1.9670163    1.8634590    3.0200985 
C    -1.0963246    1.6458394    4.0930236 
H    -2.9512673    2.2997546    3.2089660 
C    -1.4777347    2.0918506    5.4715991 
H    -2.4948032    1.7797557    5.7548123 
H    -0.7797411    1.7173723    6.2334249 
C     0.5709209    0.7773639    2.5367331 
O    -1.4305934    3.5456952    5.4499607 
N    -2.1008281    3.5172486    7.6745598 
H    -2.6804808    3.6376070    9.6579184 
C     3.0289380    1.2698600    2.3471523 
H     0.8477197    0.9190065    4.6653804 
C     4.8194261    3.4068506    2.5273975 
H     2.1651724   -0.5286858    3.1002880 
C     3.7245352    1.5206488    3.5300938 
H     3.5407282    0.8937283    4.4041391 
C     4.6205253    2.5877969    3.6420176 
C     5.2981318    2.8981073    4.9464044 
H     5.3629030    2.0100992    5.5878820 
H     6.3002117    3.3160283    4.7844989 
O     4.6023772    3.9610015    5.6631064 
H     5.5109202    4.2507345    2.6004878 
N     3.2194854    2.3350515    6.5965820 
H     1.9306564    0.9908876    7.4994703 
C     2.1399818    2.0549385    7.3494405 
H    -4.4285765    7.5475172    0.4215383 
C    -2.4311069    4.2266731    8.7703367 
C    -1.7916511    4.2020627    6.5740328 
C    -2.4642399    5.6158032    8.8112172 
H    -2.7377144    6.1369025    9.7283749 
H    -3.6754863    7.4880777    4.8289173 
C    -1.8098213    5.6093676    6.4929028 
O    -4.2140051    6.8903670    2.3958252 
C    -3.1114900    8.0706888    4.1010199 
H    -1.9929661    9.2314722    5.5284654 
C    -2.1503595    6.3145432    7.6352875 
H    -2.1773617    7.4058970    7.6131371 
H    -1.5696336    6.0989091    5.5500763 
N    -2.6668459    8.5144222    1.7699876 
H    -1.2674477    9.9800616    1.3470673 
C    -1.7759511    9.4462115    2.1563798 
C    -3.3073468    7.8431492    2.7243260 
C    -1.4917696    9.7419186    3.4829299 
H    -0.7454336   10.4922654    3.7389496 
C    -2.1860671    9.0318693    4.4729600 
O    -0.8896248    5.6988405    3.0054814 
H     0.8587839    6.6058426    5.5597709 
H     0.5363604    7.9314449    7.6690080 
H     0.4397649    2.7406880    8.4924461 
C     0.9231921    8.4104287    6.7673432 
O     0.7426524    4.1774775    2.2970598 
C     3.5132377    3.6183022    6.3941555 
C     2.2138993    8.2496361    2.1563726 
C     1.0972870    7.6669867    5.6124287 
C    -0.0730529    4.9389772    2.6504807 
C     1.3174450    3.0220577    7.9124399 
C     1.2428306    9.7769149    6.7625802 
H     1.1204911   10.3938949    7.6525060 
O     1.7414580    7.5801154    3.3599569 
C     1.5937751    8.3310906    4.4728640 
H     3.2122178    8.6685134    2.3530854 
N     1.9097143    9.6250330    4.4475854 
H     1.9998330   11.3858832    5.5313929 
C     1.7320283   10.3262977    5.5829974 
H     1.0120508    5.1610784    8.0930712 
C     2.7516955    4.6819880    6.9182723 
C     1.6388239    4.3674332    7.6816085 
H     3.0428619    5.7104709    6.7065902 
